data_crystal

_cell_length_a 10.17160
_cell_length_b 17.59110
_cell_length_c 17.59110
_cell_angle_alpha 120.00000
_cell_angle_beta  90.00000
_cell_angle_gamma 90.00000

_symmetry_space_group_name_	'P 1'
_symmetry_space_group_name_H-M	'P 1'

loop_
_symmetry_equiv_pos_as_xyz
  x,y,z

loop_
_atom_site_label
_atom_site_type_symbol
_atom_site_fract_x
_atom_site_fract_y
_atom_site_fract_z
_atom_site_charge
Zn	Zn	0.86909 0.54333 0.46797 1.17100
Zn	Zn	0.53576 0.92464 0.45667 1.17400
Zn	Zn	0.20242 0.53203 0.07536 1.17400
Zn	Zn	0.36909 0.45667 0.53203 1.17300
Zn	Zn	0.03576 0.07536 0.54333 1.17600
Zn	Zn	0.70242 0.46797 0.92464 1.17300
H 	H 	0.58520 0.47720 0.77890 -0.02300
H 	H 	0.63170 0.52290 0.67820 0.06300
H 	H 	0.97990 0.61010 0.79480 0.07000
H 	H 	0.92770 0.56250 0.89010 -0.04100
H 	H 	0.79140 0.63380 0.65300 0.04800
H 	H 	0.93950 0.61480 0.66290 0.04500
H 	H 	0.96540 0.45190 0.61340 0.04300
H 	H 	0.80280 0.34920 0.50800 0.12600
H 	H 	0.94210 0.31180 0.50930 0.11900
H 	H 	0.90730 0.33530 0.43670 0.10300
H 	H 	0.76550 0.48550 0.55840 0.10200
H 	H 	0.25187 0.30170 0.52280 -0.02100
H 	H 	0.29837 0.15530 0.47710 0.06500
H 	H 	0.64657 0.18470 0.38990 0.07400
H 	H 	0.59437 0.32760 0.43750 -0.03700
H 	H 	0.45807 0.01920 0.36620 0.05000
H 	H 	0.60617 0.04810 0.38520 0.04900
H 	H 	0.63207 0.16150 0.54810 0.03900
H 	H 	0.46947 0.15880 0.65080 0.13500
H 	H 	0.60877 0.19750 0.68820 0.13100
H 	H 	0.57397 0.10140 0.66470 0.11600
H 	H 	0.43217 0.07290 0.51450 0.10200
H 	H 	0.91853 0.22110 0.69830 -0.00200
H 	H 	0.96503 0.32180 0.84470 0.02300
H 	H 	0.31323 0.20520 0.81530 0.06600
H 	H 	0.26103 0.10990 0.67240 -0.03100
H 	H 	0.12473 0.34700 0.98080 0.04500
H 	H 	0.27283 0.33710 0.95190 0.04300
H 	H 	0.29873 0.38660 0.83850 0.03800
H 	H 	0.13613 0.49200 0.84120 0.14500
H 	H 	0.27543 0.49070 0.80250 0.13900
H 	H 	0.24063 0.56330 0.89860 0.12400
H 	H 	0.09883 0.44160 0.92710 0.10800
H 	H 	0.08520 0.52280 0.22110 -0.02100
H 	H 	0.13170 0.47710 0.32180 0.06600
H 	H 	0.47990 0.38990 0.20520 0.07400
H 	H 	0.42770 0.43750 0.10990 -0.03700
H 	H 	0.29140 0.36620 0.34700 0.05100
H 	H 	0.43950 0.38520 0.33710 0.05000
H 	H 	0.46540 0.54810 0.38660 0.03900
H 	H 	0.30280 0.65080 0.49200 0.13700
H 	H 	0.44210 0.68820 0.49070 0.13300
H 	H 	0.40730 0.66470 0.56330 0.11700
H 	H 	0.26550 0.51450 0.44160 0.10300
H 	H 	0.75187 0.69830 0.47720 -0.01700
H 	H 	0.79837 0.84470 0.52290 0.05000
H 	H 	0.14657 0.81530 0.61010 0.05900
H 	H 	0.09437 0.67240 0.56250 -0.03100
H 	H 	0.95807 0.98080 0.63380 0.01300
H 	H 	0.10617 0.95190 0.61480 0.02800
H 	H 	0.13207 0.83850 0.45190 0.05100
H 	H 	0.96947 0.84120 0.34920 0.09500
H 	H 	0.10877 0.80250 0.31180 0.10700
H 	H 	0.07397 0.89860 0.33530 0.09300
H 	H 	0.93217 0.92710 0.48550 0.09000
H 	H 	0.41853 0.77890 0.30170 -0.02300
H 	H 	0.46503 0.67820 0.15530 0.06400
H 	H 	0.81323 0.79480 0.18470 0.07200
H 	H 	0.76103 0.89010 0.32760 -0.03700
H 	H 	0.62473 0.65300 0.01920 0.04900
H 	H 	0.77283 0.66290 0.04810 0.04800
H 	H 	0.79873 0.61340 0.16150 0.03500
H 	H 	0.63613 0.50800 0.15880 0.13600
H 	H 	0.77543 0.50930 0.19750 0.13000
H 	H 	0.74063 0.43670 0.10140 0.11600
H 	H 	0.59883 0.55840 0.07290 0.10200
C 	C 	0.66560 0.50370 0.78180 0.06500
C 	C 	0.69390 0.53090 0.72030 -0.17400
C 	C 	0.81380 0.56960 0.72250 0.12600
C 	C 	0.89980 0.58230 0.78920 -0.19600
C 	C 	0.86730 0.55430 0.84690 0.09000
C 	C 	0.85150 0.59040 0.65190 -0.15900
C 	C 	0.94480 0.44370 0.55540 -0.05400
C 	C 	0.06940 0.46000 0.51590 0.32400
C 	C 	0.89470 0.35170 0.49710 -0.38800
C 	C 	0.33227 0.27810 0.49630 0.06600
C 	C 	0.36057 0.18940 0.46910 -0.17400
C 	C 	0.48047 0.15290 0.43040 0.12900
C 	C 	0.56647 0.20690 0.41770 -0.19600
C 	C 	0.53397 0.29260 0.44570 0.09200
C 	C 	0.51817 0.06150 0.40960 -0.16100
C 	C 	0.61147 0.11170 0.55630 -0.02900
C 	C 	0.73607 0.05590 0.54000 0.30600
C 	C 	0.56137 0.14540 0.64830 -0.41700
C 	C 	0.99893 0.21820 0.72190 -0.00300
C 	C 	0.02723 0.27970 0.81060 -0.08900
C 	C 	0.14713 0.27750 0.84710 0.09100
C 	C 	0.23313 0.21080 0.79310 -0.16700
C 	C 	0.20063 0.15310 0.70740 0.07500
C 	C 	0.18483 0.34810 0.93850 -0.13800
C 	C 	0.27813 0.44460 0.88830 -0.02000
C 	C 	0.40273 0.48410 0.94410 0.30100
C 	C 	0.22803 0.50290 0.85460 -0.43500
C 	C 	0.16560 0.49630 0.21820 0.06700
C 	C 	0.19390 0.46910 0.27970 -0.17500
C 	C 	0.31380 0.43040 0.27750 0.13000
C 	C 	0.39980 0.41770 0.21080 -0.19700
C 	C 	0.36730 0.44570 0.15310 0.09200
C 	C 	0.35150 0.40960 0.34810 -0.16200
C 	C 	0.44480 0.55630 0.44460 -0.02800
C 	C 	0.56940 0.54000 0.48410 0.30400
C 	C 	0.39470 0.64830 0.50290 -0.42000
C 	C 	0.83227 0.72190 0.50370 0.04400
C 	C 	0.86057 0.81060 0.53090 -0.13800
C 	C 	0.98047 0.84710 0.56960 0.05700
C 	C 	0.06647 0.79310 0.58230 -0.14200
C 	C 	0.03397 0.70740 0.55430 0.08500
C 	C 	0.01817 0.93850 0.59040 -0.07600
C 	C 	0.11147 0.88830 0.44370 -0.05900
C 	C 	0.23607 0.94410 0.46000 0.31600
C 	C 	0.06137 0.85460 0.35170 -0.32100
C 	C 	0.49893 0.78180 0.27810 0.06600
C 	C 	0.52723 0.72030 0.18940 -0.17400
C 	C 	0.64713 0.72250 0.15290 0.12700
C 	C 	0.73313 0.78920 0.20690 -0.19500
C 	C 	0.70063 0.84690 0.29260 0.09100
C 	C 	0.68483 0.65190 0.06150 -0.16000
C 	C 	0.77813 0.55540 0.11170 -0.02200
C 	C 	0.90273 0.51590 0.05590 0.28300
C 	C 	0.72803 0.49710 0.14540 -0.42200
N 	N 	0.84670 0.50980 0.56480 -0.26600
N 	N 	0.75170 0.51520 0.84370 -0.28100
N 	N 	0.51337 0.05500 0.49020 -0.26600
N 	N 	0.41837 0.32850 0.48480 -0.28100
N 	N 	0.18003 0.43520 0.94500 -0.27100
N 	N 	0.08503 0.15630 0.67150 -0.25900
N 	N 	0.34670 0.49020 0.43520 -0.26700
N 	N 	0.25170 0.48480 0.15630 -0.28100
N 	N 	0.01337 0.94500 0.50980 -0.25900
N 	N 	0.91837 0.67150 0.51520 -0.28300
N 	N 	0.68003 0.56480 0.05500 -0.26700
N 	N 	0.58503 0.84370 0.32850 -0.28100
O 	O 	0.17270 0.42340 0.52540 -0.46200
O 	O 	0.06330 0.50320 0.47780 -0.47400
O 	O 	0.83937 0.10200 0.57660 -0.46600
O 	O 	0.72997 0.97460 0.49680 -0.47700
O 	O 	0.50603 0.47460 0.89800 -0.46100
O 	O 	0.39663 0.52220 0.02540 -0.47400
O 	O 	0.67270 0.57660 0.47460 -0.46200
O 	O 	0.56330 0.49680 0.52220 -0.47600
O 	O 	0.33937 0.89800 0.42340 -0.46400
O 	O 	0.22997 0.02540 0.50320 -0.47900
O 	O 	0.00603 0.52540 0.10200 -0.44300
O 	O 	0.89663 0.47780 0.97460 -0.47500
