data_crystal

_cell_length_a 12.70000
_cell_length_b 12.70000
_cell_length_c 25.36400
_cell_angle_alpha 90.00000
_cell_angle_beta  90.00000
_cell_angle_gamma 90.00000

_symmetry_space_group_name_	'P 1'
_symmetry_space_group_name_H-M	'P 1'

loop_
_symmetry_equiv_pos_as_xyz
  x,y,z

loop_
_atom_site_label
_atom_site_type_symbol
_atom_site_fract_x
_atom_site_fract_y
_atom_site_fract_z
_atom_site_charge
Zn	Zn	0.03855 0.93074 0.43753 1.18600
Zn	Zn	0.46145 0.56926 0.43753 1.18600
Zn	Zn	0.56926 0.03855 0.43753 1.18700
Zn	Zn	0.93074 0.46145 0.43753 1.18700
Zn	Zn	0.46145 0.93074 0.06247 1.18700
Zn	Zn	0.03855 0.56926 0.06247 1.18700
Zn	Zn	0.93074 0.03855 0.06247 1.18700
Zn	Zn	0.56926 0.46145 0.06247 1.18700
Zn	Zn	0.96145 0.06926 0.56247 1.18700
Zn	Zn	0.53855 0.43074 0.56247 1.18700
Zn	Zn	0.43074 0.96145 0.56247 1.18700
Zn	Zn	0.06926 0.53855 0.56247 1.18700
Zn	Zn	0.53855 0.06926 0.93753 1.18700
Zn	Zn	0.96145 0.43074 0.93753 1.18700
Zn	Zn	0.06926 0.96145 0.93753 1.18700
Zn	Zn	0.43074 0.53855 0.93753 1.18700
H 	H 	0.27670 0.93970 0.46870 -0.01600
H 	H 	0.07130 0.92700 0.23740 0.05400
H 	H 	0.18360 0.93170 0.16560 0.04200
H 	H 	0.25600 0.03230 0.64570 0.16500
H 	H 	0.13950 0.04490 0.64740 0.16400
H 	H 	0.22330 0.56030 0.46870 -0.01600
H 	H 	0.42870 0.57300 0.23740 0.05400
H 	H 	0.31640 0.56830 0.16560 0.04200
H 	H 	0.24400 0.46770 0.64570 0.16400
H 	H 	0.36050 0.45510 0.64740 0.16400
H 	H 	0.56030 0.27670 0.46870 -0.01600
H 	H 	0.57300 0.07130 0.23740 0.05400
H 	H 	0.56830 0.18360 0.16560 0.04200
H 	H 	0.46770 0.25600 0.64570 0.16400
H 	H 	0.45510 0.13950 0.64740 0.16400
H 	H 	0.93970 0.22330 0.46870 -0.01600
H 	H 	0.92700 0.42870 0.23740 0.05400
H 	H 	0.93170 0.31640 0.16560 0.04200
H 	H 	0.03230 0.24400 0.64570 0.16500
H 	H 	0.04490 0.36050 0.64740 0.16400
H 	H 	0.22330 0.93970 0.03130 -0.01600
H 	H 	0.42870 0.92700 0.26260 0.05400
H 	H 	0.31640 0.93170 0.33440 0.04200
H 	H 	0.24400 0.03230 0.85430 0.16500
H 	H 	0.36050 0.04490 0.85260 0.16400
H 	H 	0.27670 0.56030 0.03130 -0.01600
H 	H 	0.07130 0.57300 0.26260 0.05400
H 	H 	0.18360 0.56830 0.33440 0.04200
H 	H 	0.25600 0.46770 0.85430 0.16400
H 	H 	0.13950 0.45510 0.85260 0.16400
H 	H 	0.93970 0.27670 0.03130 -0.01600
H 	H 	0.92700 0.07130 0.26260 0.05400
H 	H 	0.93170 0.18360 0.33440 0.04200
H 	H 	0.03230 0.25600 0.85430 0.16500
H 	H 	0.04490 0.13950 0.85260 0.16500
H 	H 	0.56030 0.22330 0.03130 -0.01600
H 	H 	0.57300 0.42870 0.26260 0.05400
H 	H 	0.56830 0.31640 0.33440 0.04200
H 	H 	0.46770 0.24400 0.85430 0.16400
H 	H 	0.45510 0.36050 0.85260 0.16400
H 	H 	0.72330 0.06030 0.53130 -0.01600
H 	H 	0.92870 0.07300 0.76260 0.05400
H 	H 	0.81640 0.06830 0.83440 0.04200
H 	H 	0.74400 0.96770 0.35430 0.16500
H 	H 	0.86050 0.95510 0.35260 0.16400
H 	H 	0.77670 0.43970 0.53130 -0.01600
H 	H 	0.57130 0.42700 0.76260 0.05400
H 	H 	0.68360 0.43170 0.83440 0.04200
H 	H 	0.75600 0.53230 0.35430 0.16400
H 	H 	0.63950 0.54490 0.35260 0.16400
H 	H 	0.43970 0.72330 0.53130 -0.01600
H 	H 	0.42700 0.92870 0.76260 0.05400
H 	H 	0.43170 0.81640 0.83440 0.04200
H 	H 	0.53230 0.74400 0.35430 0.16400
H 	H 	0.54490 0.86050 0.35260 0.16400
H 	H 	0.06030 0.77670 0.53130 -0.01600
H 	H 	0.07300 0.57130 0.76260 0.05400
H 	H 	0.06830 0.68360 0.83440 0.04200
H 	H 	0.96770 0.75600 0.35430 0.16500
H 	H 	0.95510 0.63950 0.35260 0.16400
H 	H 	0.77670 0.06030 0.96870 -0.01600
H 	H 	0.57130 0.07300 0.73740 0.05400
H 	H 	0.68360 0.06830 0.66560 0.04200
H 	H 	0.75600 0.96770 0.14570 0.16500
H 	H 	0.63950 0.95510 0.14740 0.16400
H 	H 	0.72330 0.43970 0.96870 -0.01600
H 	H 	0.92870 0.42700 0.73740 0.05400
H 	H 	0.81640 0.43170 0.66560 0.04200
H 	H 	0.74400 0.53230 0.14570 0.16400
H 	H 	0.86050 0.54490 0.14740 0.16400
H 	H 	0.06030 0.72330 0.96870 -0.01600
H 	H 	0.07300 0.92870 0.73740 0.05400
H 	H 	0.06830 0.81640 0.66560 0.04200
H 	H 	0.96770 0.74400 0.14570 0.16500
H 	H 	0.95510 0.86050 0.14740 0.16500
H 	H 	0.43970 0.77670 0.96870 -0.01600
H 	H 	0.42700 0.57130 0.73740 0.05400
H 	H 	0.43170 0.68360 0.66560 0.04200
H 	H 	0.53230 0.75600 0.14570 0.16400
H 	H 	0.54490 0.63950 0.14740 0.16400
C 	C 	0.19040 0.00460 0.58245 0.19400
C 	C 	0.23700 0.95860 0.49801 0.02700
C 	C 	0.18200 0.93060 0.29270 -0.06900
C 	C 	0.14370 0.92910 0.24280 -0.02500
C 	C 	0.21100 0.93070 0.19960 -0.01600
C 	C 	0.10750 0.93110 0.33880 0.32700
C 	C 	0.30960 0.49540 0.58245 0.19200
C 	C 	0.26300 0.54140 0.49801 0.02800
C 	C 	0.31800 0.56940 0.29270 -0.06900
C 	C 	0.35630 0.57090 0.24280 -0.02600
C 	C 	0.28900 0.56930 0.19960 -0.01600
C 	C 	0.39250 0.56890 0.33880 0.32700
C 	C 	0.49540 0.19040 0.58245 0.19200
C 	C 	0.54140 0.23700 0.49801 0.02800
C 	C 	0.56940 0.18200 0.29270 -0.06900
C 	C 	0.57090 0.14370 0.24280 -0.02600
C 	C 	0.56930 0.21100 0.19960 -0.01600
C 	C 	0.56890 0.10750 0.33880 0.32700
C 	C 	0.00460 0.30960 0.58245 0.19300
C 	C 	0.95860 0.26300 0.49801 0.02700
C 	C 	0.93060 0.31800 0.29270 -0.06900
C 	C 	0.92910 0.35630 0.24280 -0.02600
C 	C 	0.93070 0.28900 0.19960 -0.01600
C 	C 	0.93110 0.39250 0.33880 0.32700
C 	C 	0.30960 0.00460 0.91755 0.19400
C 	C 	0.26300 0.95860 0.00199 0.02800
C 	C 	0.31800 0.93060 0.20730 -0.06900
C 	C 	0.35630 0.92910 0.25720 -0.02600
C 	C 	0.28900 0.93070 0.30040 -0.01600
C 	C 	0.39250 0.93110 0.16120 0.32700
C 	C 	0.19040 0.49540 0.91755 0.19300
C 	C 	0.23700 0.54140 0.00199 0.02700
C 	C 	0.18200 0.56940 0.20730 -0.06900
C 	C 	0.14370 0.57090 0.25720 -0.02500
C 	C 	0.21100 0.56930 0.30040 -0.01600
C 	C 	0.10750 0.56890 0.16120 0.32700
C 	C 	0.00460 0.19040 0.91755 0.19400
C 	C 	0.95860 0.23700 0.00199 0.02800
C 	C 	0.93060 0.18200 0.20730 -0.06900
C 	C 	0.92910 0.14370 0.25720 -0.02500
C 	C 	0.93070 0.21100 0.30040 -0.01600
C 	C 	0.93110 0.10750 0.16120 0.32700
C 	C 	0.49540 0.30960 0.91755 0.19200
C 	C 	0.54140 0.26300 0.00199 0.02700
C 	C 	0.56940 0.31800 0.20730 -0.06900
C 	C 	0.57090 0.35630 0.25720 -0.02600
C 	C 	0.56930 0.28900 0.30040 -0.01600
C 	C 	0.56890 0.39250 0.16120 0.32700
C 	C 	0.80960 0.99540 0.41755 0.19400
C 	C 	0.76300 0.04140 0.50199 0.02700
C 	C 	0.81800 0.06940 0.70730 -0.06900
C 	C 	0.85630 0.07090 0.75720 -0.02500
C 	C 	0.78900 0.06930 0.80040 -0.01600
C 	C 	0.89250 0.06890 0.66120 0.32700
C 	C 	0.69040 0.50460 0.41755 0.19200
C 	C 	0.73700 0.45860 0.50199 0.02800
C 	C 	0.68200 0.43060 0.70730 -0.06900
C 	C 	0.64370 0.42910 0.75720 -0.02600
C 	C 	0.71100 0.43070 0.80040 -0.01600
C 	C 	0.60750 0.43110 0.66120 0.32700
C 	C 	0.50460 0.80960 0.41755 0.19200
C 	C 	0.45860 0.76300 0.50199 0.02800
C 	C 	0.43060 0.81800 0.70730 -0.06900
C 	C 	0.42910 0.85630 0.75720 -0.02600
C 	C 	0.43070 0.78900 0.80040 -0.01600
C 	C 	0.43110 0.89250 0.66120 0.32700
C 	C 	0.99540 0.69040 0.41755 0.19300
C 	C 	0.04140 0.73700 0.50199 0.02700
C 	C 	0.06940 0.68200 0.70730 -0.06900
C 	C 	0.07090 0.64370 0.75720 -0.02600
C 	C 	0.06930 0.71100 0.80040 -0.01600
C 	C 	0.06890 0.60750 0.66120 0.32700
C 	C 	0.69040 0.99540 0.08245 0.19400
C 	C 	0.73700 0.04140 0.99801 0.02800
C 	C 	0.68200 0.06940 0.79270 -0.06900
C 	C 	0.64370 0.07090 0.74280 -0.02600
C 	C 	0.71100 0.06930 0.69960 -0.01600
C 	C 	0.60750 0.06890 0.83880 0.32700
C 	C 	0.80960 0.50460 0.08245 0.19300
C 	C 	0.76300 0.45860 0.99801 0.02700
C 	C 	0.81800 0.43060 0.79270 -0.06900
C 	C 	0.85630 0.42910 0.74280 -0.02500
C 	C 	0.78900 0.43070 0.69960 -0.01600
C 	C 	0.89250 0.43110 0.83880 0.32700
C 	C 	0.99540 0.80960 0.08245 0.19400
C 	C 	0.04140 0.76300 0.99801 0.02800
C 	C 	0.06940 0.81800 0.79270 -0.06900
C 	C 	0.07090 0.85630 0.74280 -0.02500
C 	C 	0.06930 0.78900 0.69960 -0.01600
C 	C 	0.06890 0.89250 0.83880 0.32700
C 	C 	0.50460 0.69040 0.08245 0.19200
C 	C 	0.45860 0.73700 0.99801 0.02700
C 	C 	0.43060 0.68200 0.79270 -0.06900
C 	C 	0.42910 0.64370 0.74280 -0.02600
C 	C 	0.43070 0.71100 0.69960 -0.01600
C 	C 	0.43110 0.60750 0.83880 0.32700
N 	N 	0.09740 0.00160 0.55140 -0.28300
N 	N 	0.12620 0.97320 0.49921 -0.25400
N 	N 	0.27670 0.97800 0.54945 -0.29000
N 	N 	0.19590 0.02990 0.63020 -0.36600
N 	N 	0.40260 0.49840 0.55140 -0.28400
N 	N 	0.37380 0.52680 0.49921 -0.25300
N 	N 	0.22330 0.52200 0.54945 -0.28900
N 	N 	0.30410 0.47010 0.63020 -0.36600
N 	N 	0.49840 0.09740 0.55140 -0.28400
N 	N 	0.52680 0.12620 0.49921 -0.25300
N 	N 	0.52200 0.27670 0.54945 -0.28900
N 	N 	0.47010 0.19590 0.63020 -0.36600
N 	N 	0.00160 0.40260 0.55140 -0.28400
N 	N 	0.97320 0.37380 0.49921 -0.25300
N 	N 	0.97800 0.22330 0.54945 -0.29000
N 	N 	0.02990 0.30410 0.63020 -0.36600
N 	N 	0.40260 0.00160 0.94860 -0.28400
N 	N 	0.37380 0.97320 0.00079 -0.25300
N 	N 	0.22330 0.97800 0.95055 -0.29000
N 	N 	0.30410 0.02990 0.86980 -0.36600
N 	N 	0.09740 0.49840 0.94860 -0.28400
N 	N 	0.12620 0.52680 0.00079 -0.25300
N 	N 	0.27670 0.52200 0.95055 -0.28900
N 	N 	0.19590 0.47010 0.86980 -0.36600
N 	N 	0.00160 0.09740 0.94860 -0.28300
N 	N 	0.97320 0.12620 0.00079 -0.25400
N 	N 	0.97800 0.27670 0.95055 -0.29000
N 	N 	0.02990 0.19590 0.86980 -0.36600
N 	N 	0.49840 0.40260 0.94860 -0.28400
N 	N 	0.52680 0.37380 0.00079 -0.25300
N 	N 	0.52200 0.22330 0.95055 -0.28900
N 	N 	0.47010 0.30410 0.86980 -0.36600
N 	N 	0.90260 0.99840 0.44860 -0.28300
N 	N 	0.87380 0.02680 0.50079 -0.25400
N 	N 	0.72330 0.02200 0.45055 -0.29000
N 	N 	0.80410 0.97010 0.36980 -0.36600
N 	N 	0.59740 0.50160 0.44860 -0.28400
N 	N 	0.62620 0.47320 0.50079 -0.25300
N 	N 	0.77670 0.47800 0.45055 -0.28900
N 	N 	0.69590 0.52990 0.36980 -0.36600
N 	N 	0.50160 0.90260 0.44860 -0.28400
N 	N 	0.47320 0.87380 0.50079 -0.25300
N 	N 	0.47800 0.72330 0.45055 -0.28900
N 	N 	0.52990 0.80410 0.36980 -0.36600
N 	N 	0.99840 0.59740 0.44860 -0.28400
N 	N 	0.02680 0.62620 0.50079 -0.25300
N 	N 	0.02200 0.77670 0.45055 -0.29000
N 	N 	0.97010 0.69590 0.36980 -0.36600
N 	N 	0.59740 0.99840 0.05140 -0.28400
N 	N 	0.62620 0.02680 0.99921 -0.25300
N 	N 	0.77670 0.02200 0.04945 -0.29000
N 	N 	0.69590 0.97010 0.13020 -0.36600
N 	N 	0.90260 0.50160 0.05140 -0.28400
N 	N 	0.87380 0.47320 0.99921 -0.25300
N 	N 	0.72330 0.47800 0.04945 -0.28900
N 	N 	0.80410 0.52990 0.13020 -0.36600
N 	N 	0.99840 0.90260 0.05140 -0.28300
N 	N 	0.02680 0.87380 0.99921 -0.25400
N 	N 	0.02200 0.72330 0.04945 -0.29000
N 	N 	0.97010 0.80410 0.13020 -0.36600
N 	N 	0.50160 0.59740 0.05140 -0.28400
N 	N 	0.47320 0.62620 0.99921 -0.25300
N 	N 	0.47800 0.77670 0.04945 -0.28900
N 	N 	0.52990 0.69590 0.13020 -0.36600
O 	O 	0.14640 0.94950 0.38380 -0.47600
O 	O 	0.01250 0.91190 0.33290 -0.36500
O 	O 	0.35360 0.55050 0.38380 -0.47500
O 	O 	0.48750 0.58810 0.33290 -0.36400
O 	O 	0.55050 0.14640 0.38380 -0.47500
O 	O 	0.58810 0.01250 0.33290 -0.36400
O 	O 	0.94950 0.35360 0.38380 -0.47600
O 	O 	0.91190 0.48750 0.33290 -0.36400
O 	O 	0.35360 0.94950 0.11620 -0.47600
O 	O 	0.48750 0.91190 0.16710 -0.36400
O 	O 	0.14640 0.55050 0.11620 -0.47600
O 	O 	0.01250 0.58810 0.16710 -0.36400
O 	O 	0.94950 0.14640 0.11620 -0.47600
O 	O 	0.91190 0.01250 0.16710 -0.36500
O 	O 	0.55050 0.35360 0.11620 -0.47500
O 	O 	0.58810 0.48750 0.16710 -0.36400
O 	O 	0.85360 0.05050 0.61620 -0.47600
O 	O 	0.98750 0.08810 0.66710 -0.36500
O 	O 	0.64640 0.44950 0.61620 -0.47500
O 	O 	0.51250 0.41190 0.66710 -0.36400
O 	O 	0.44950 0.85360 0.61620 -0.47500
O 	O 	0.41190 0.98750 0.66710 -0.36400
O 	O 	0.05050 0.64640 0.61620 -0.47600
O 	O 	0.08810 0.51250 0.66710 -0.36400
O 	O 	0.64640 0.05050 0.88380 -0.47600
O 	O 	0.51250 0.08810 0.83290 -0.36400
O 	O 	0.85360 0.44950 0.88380 -0.47600
O 	O 	0.98750 0.41190 0.83290 -0.36400
O 	O 	0.05050 0.85360 0.88380 -0.47600
O 	O 	0.08810 0.98750 0.83290 -0.36500
O 	O 	0.44950 0.64640 0.88380 -0.47500
O 	O 	0.41190 0.51250 0.83290 -0.36400
