data_crystal

_cell_length_a 9.27320
_cell_length_b 14.32180
_cell_length_c 16.97920
_cell_angle_alpha 98.65900
_cell_angle_beta  90.00000
_cell_angle_gamma 108.88900

_symmetry_space_group_name_	'P 1'
_symmetry_space_group_name_H-M	'P 1'

loop_
_symmetry_equiv_pos_as_xyz
  x,y,z

loop_
_atom_site_label
_atom_site_type_symbol
_atom_site_fract_x
_atom_site_fract_y
_atom_site_fract_z
_atom_site_charge
Zn	Zn	0.97035 0.34620 0.34233 1.22500
Zn	Zn	0.56606 0.34474 0.54949 1.22700
Zn	Zn	0.62415 0.65380 0.15767 1.22500
Zn	Zn	0.22132 0.65526 0.95051 1.22700
Zn	Zn	0.02965 0.65380 0.65767 1.22500
Zn	Zn	0.43394 0.65526 0.45051 1.22700
Zn	Zn	0.37585 0.34620 0.84233 1.22500
Zn	Zn	0.77868 0.34474 0.04949 1.22700
H 	H 	0.14850 0.25580 0.36770 0.33700
H 	H 	0.06700 0.31180 0.39720 0.12800
H 	H 	0.68200 0.47500 0.32540 0.08300
H 	H 	0.89610 0.59380 0.44710 0.07300
H 	H 	0.03830 0.69900 0.36830 0.08500
H 	H 	0.05470 0.56200 0.25650 0.06500
H 	H 	0.62520 0.26280 0.27310 0.00300
H 	H 	0.46620 0.13000 0.18820 0.08700
H 	H 	0.81540 0.02500 0.15180 0.08400
H 	H 	0.96090 0.15860 0.24120 0.00500
H 	H 	0.17130 0.83220 0.06000 0.01000
H 	H 	0.31610 0.97220 0.14420 0.08200
H 	H 	0.68920 0.93640 0.04400 0.09000
H 	H 	0.53440 0.79620 0.96330 -0.00100
H 	H 	0.89270 0.74420 0.13230 0.33600
H 	H 	0.75520 0.68820 0.10280 0.12800
H 	H 	0.20700 0.52500 0.17460 0.08400
H 	H 	0.30230 0.40620 0.05290 0.07400
H 	H 	0.33930 0.30100 0.13170 0.08400
H 	H 	0.49270 0.43800 0.24350 0.06500
H 	H 	0.36240 0.73720 0.22690 0.00200
H 	H 	0.33620 0.87000 0.31180 0.08900
H 	H 	0.79040 0.97500 0.34820 0.08800
H 	H 	0.80230 0.84140 0.25880 0.00600
H 	H 	0.33910 0.16780 0.44000 0.01000
H 	H 	0.34390 0.02780 0.35580 0.08000
H 	H 	0.75280 0.06360 0.45600 0.08600
H 	H 	0.73820 0.20380 0.53670 0.00200
H 	H 	0.85150 0.74420 0.63230 0.33700
H 	H 	0.93300 0.68820 0.60280 0.12800
H 	H 	0.31800 0.52500 0.67460 0.08300
H 	H 	0.10390 0.40620 0.55290 0.07300
H 	H 	0.96170 0.30100 0.63170 0.08500
H 	H 	0.94530 0.43800 0.74350 0.06500
H 	H 	0.37480 0.73720 0.72690 0.00300
H 	H 	0.53380 0.87000 0.81180 0.08700
H 	H 	0.18460 0.97500 0.84820 0.08400
H 	H 	0.03910 0.84140 0.75880 0.00500
H 	H 	0.82870 0.16780 0.94000 0.01000
H 	H 	0.68390 0.02780 0.85580 0.08200
H 	H 	0.31080 0.06360 0.95600 0.09000
H 	H 	0.46560 0.20380 0.03670 -0.00100
H 	H 	0.10730 0.25580 0.86770 0.33600
H 	H 	0.24480 0.31180 0.89720 0.12800
H 	H 	0.79300 0.47500 0.82540 0.08400
H 	H 	0.69770 0.59380 0.94710 0.07400
H 	H 	0.66070 0.69900 0.86830 0.08400
H 	H 	0.50730 0.56200 0.75650 0.06500
H 	H 	0.63760 0.26280 0.77310 0.00200
H 	H 	0.66380 0.13000 0.68820 0.08900
H 	H 	0.20960 0.02500 0.65180 0.08800
H 	H 	0.19770 0.15860 0.74120 0.00600
H 	H 	0.66090 0.83220 0.56000 0.01000
H 	H 	0.65610 0.97220 0.64420 0.08000
H 	H 	0.24720 0.93640 0.54400 0.08600
H 	H 	0.26180 0.79620 0.46330 0.00200
C 	C 	0.77403 0.48406 0.35810 -0.04600
C 	C 	0.83865 0.59310 0.39840 -0.07900
C 	C 	0.95682 0.64164 0.33974 -0.10700
C 	C 	0.01800 0.55580 0.31025 -0.02800
C 	C 	0.73516 0.41212 0.41823 0.34800
C 	C 	0.72523 0.64686 0.42302 0.33200
C 	C 	0.89192 0.67104 0.26765 0.35800
C 	C 	0.14879 0.55538 0.36618 0.34400
C 	C 	0.66375 0.21390 0.24888 0.08700
C 	C 	0.56691 0.13382 0.19754 -0.14200
C 	C 	0.62018 0.05916 0.15983 0.05600
C 	C 	0.77243 0.07146 0.17640 -0.13200
C 	C 	0.86019 0.15318 0.22960 0.07500
C 	C 	0.27689 0.85298 0.05722 0.07700
C 	C 	0.36333 0.93746 0.10800 -0.13100
C 	C 	0.52175 0.97030 0.10465 0.06500
C 	C 	0.58416 0.91632 0.04893 -0.13500
C 	C 	0.49006 0.83192 0.00029 0.08600
C 	C 	0.28997 0.51594 0.14190 -0.04500
C 	C 	0.24555 0.40690 0.10160 -0.08100
C 	C 	0.31518 0.35836 0.16026 -0.10500
C 	C 	0.46220 0.44420 0.18975 -0.03000
C 	C 	0.32304 0.58788 0.08177 0.34800
C 	C 	0.07837 0.35314 0.07698 0.33600
C 	C 	0.22088 0.32896 0.23235 0.35700
C 	C 	0.59341 0.44462 0.13382 0.34500
C 	C 	0.44985 0.78610 0.25112 0.08900
C 	C 	0.43309 0.86618 0.30246 -0.14600
C 	C 	0.56102 0.94084 0.34017 0.06300
C 	C 	0.70097 0.92854 0.32360 -0.13600
C 	C 	0.70701 0.84682 0.27040 0.07800
C 	C 	0.42391 0.14702 0.44278 0.07500
C 	C 	0.42587 0.06254 0.39200 -0.12600
C 	C 	0.55145 0.02970 0.39535 0.05800
C 	C 	0.66784 0.08368 0.45107 -0.13000
C 	C 	0.65814 0.16808 0.49971 0.08100
C 	C 	0.22597 0.51594 0.64190 -0.04600
C 	C 	0.16135 0.40690 0.60160 -0.07900
C 	C 	0.04318 0.35836 0.66026 -0.10700
C 	C 	0.98200 0.44420 0.68975 -0.02800
C 	C 	0.26484 0.58788 0.58177 0.34800
C 	C 	0.27477 0.35314 0.57698 0.33200
C 	C 	0.10808 0.32896 0.73235 0.35800
C 	C 	0.85121 0.44462 0.63382 0.34400
C 	C 	0.33625 0.78610 0.75112 0.08700
C 	C 	0.43309 0.86618 0.80246 -0.14200
C 	C 	0.37982 0.94084 0.84017 0.05600
C 	C 	0.22757 0.92854 0.82360 -0.13200
C 	C 	0.13981 0.84682 0.77040 0.07500
C 	C 	0.72311 0.14702 0.94278 0.07700
C 	C 	0.63667 0.06254 0.89200 -0.13100
C 	C 	0.47825 0.02970 0.89535 0.06500
C 	C 	0.41584 0.08368 0.95107 -0.13500
C 	C 	0.50994 0.16808 0.99971 0.08600
C 	C 	0.71003 0.48406 0.85810 -0.04500
C 	C 	0.75445 0.59310 0.89840 -0.08100
C 	C 	0.68482 0.64164 0.83974 -0.10500
C 	C 	0.53780 0.55580 0.81025 -0.03000
C 	C 	0.67696 0.41212 0.91823 0.34800
C 	C 	0.92163 0.64686 0.92302 0.33600
C 	C 	0.77912 0.67104 0.76765 0.35700
C 	C 	0.40659 0.55538 0.86618 0.34500
C 	C 	0.55015 0.21390 0.74888 0.08900
C 	C 	0.56691 0.13382 0.69754 -0.14600
C 	C 	0.43898 0.05916 0.65983 0.06300
C 	C 	0.29903 0.07146 0.67640 -0.13600
C 	C 	0.29299 0.15318 0.72960 0.07800
C 	C 	0.57609 0.85298 0.55722 0.07500
C 	C 	0.57413 0.93746 0.60800 -0.12600
C 	C 	0.44855 0.97030 0.60465 0.05800
C 	C 	0.33216 0.91632 0.54893 -0.13000
C 	C 	0.34186 0.83192 0.50029 0.08100
N 	N 	0.80811 0.22462 0.26538 -0.23700
N 	N 	0.33851 0.79962 0.00413 -0.25300
N 	N 	0.58349 0.77538 0.23462 -0.23700
N 	N 	0.53889 0.20038 0.49587 -0.25200
N 	N 	0.19189 0.77538 0.73462 -0.23700
N 	N 	0.66149 0.20038 0.99587 -0.25300
N 	N 	0.41651 0.22462 0.76538 -0.23700
N 	N 	0.46111 0.79962 0.50413 -0.25200
O 	O 	0.89030 0.46558 0.30689 -0.27100
O 	O 	0.06937 0.25474 0.38958 -0.64600
O 	O 	0.81133 0.35566 0.42491 -0.44600
O 	O 	0.62274 0.41588 0.45834 -0.43900
O 	O 	0.58563 0.60402 0.40084 -0.43900
O 	O 	0.77712 0.73044 0.46620 -0.28500
O 	O 	0.75130 0.63640 0.25255 -0.41500
O 	O 	0.98707 0.72734 0.22858 -0.30800
O 	O 	0.26224 0.63486 0.37429 -0.44700
O 	O 	0.13468 0.48136 0.39870 -0.42700
O 	O 	0.42472 0.53442 0.19311 -0.27000
O 	O 	0.81463 0.74526 0.11042 -0.64700
O 	O 	0.45567 0.64434 0.07509 -0.44600
O 	O 	0.20686 0.58412 0.04166 -0.43800
O 	O 	0.98161 0.39598 0.09916 -0.44300
O 	O 	0.04668 0.26956 0.03380 -0.28500
O 	O 	0.11490 0.36360 0.24745 -0.41400
O 	O 	0.25973 0.27266 0.27142 -0.30700
O 	O 	0.62738 0.36514 0.12571 -0.44800
O 	O 	0.65332 0.51864 0.10130 -0.42800
O 	O 	0.10970 0.53442 0.69311 -0.27100
O 	O 	0.93063 0.74526 0.61042 -0.64600
O 	O 	0.18867 0.64434 0.57509 -0.44600
O 	O 	0.37726 0.58412 0.54166 -0.43900
O 	O 	0.41437 0.39598 0.59916 -0.43900
O 	O 	0.22288 0.26956 0.53380 -0.28500
O 	O 	0.24870 0.36360 0.74745 -0.41500
O 	O 	0.01293 0.27266 0.77142 -0.30800
O 	O 	0.73776 0.36514 0.62571 -0.44700
O 	O 	0.86532 0.51864 0.60130 -0.42700
O 	O 	0.57528 0.46558 0.80689 -0.27000
O 	O 	0.18537 0.25474 0.88958 -0.64700
O 	O 	0.54433 0.35566 0.92491 -0.44600
O 	O 	0.79314 0.41588 0.95834 -0.43800
O 	O 	0.01839 0.60402 0.90084 -0.44300
O 	O 	0.95332 0.73044 0.96620 -0.28500
O 	O 	0.88510 0.63640 0.75255 -0.41400
O 	O 	0.74027 0.72734 0.72858 -0.30700
O 	O 	0.37262 0.63486 0.87429 -0.44800
O 	O 	0.34668 0.48136 0.89870 -0.42800
