data_crystal

_cell_length_a 11.95000
_cell_length_b 12.11400
_cell_length_c 13.66830
_cell_angle_alpha 63.69550
_cell_angle_beta  81.17130
_cell_angle_gamma 69.73590

_symmetry_space_group_name_	'P 1'
_symmetry_space_group_name_H-M	'P 1'

loop_
_symmetry_equiv_pos_as_xyz
  x,y,z

loop_
_atom_site_label
_atom_site_type_symbol
_atom_site_fract_x
_atom_site_fract_y
_atom_site_fract_z
_atom_site_charge
Fe	Fe	-0.00000 0.00000 -0.00000 1.02500
Fe	Fe	0.73968 0.89478 -0.00000 1.08500
Fe	Fe	0.26032 0.10522 -0.00000 1.03400
H 	H 	0.08550 0.08710 0.57480 0.16500
H 	H 	0.88910 0.86720 0.60700 0.17200
H 	H 	0.91450 0.33810 0.57480 0.04200
H 	H 	0.11090 0.52580 0.60700 0.05100
H 	H 	0.91450 0.91290 0.42520 -0.03700
H 	H 	0.11090 0.13280 0.39300 -0.04800
H 	H 	0.08550 0.66190 0.42520 0.09100
H 	H 	0.88910 0.47420 0.39300 0.07500
H 	H 	0.69960 0.46710 -0.00000 0.03200
H 	H 	0.44290 0.33980 -0.00000 0.01500
H 	H 	0.30040 0.53290 -0.00000 0.02800
H 	H 	0.55710 0.66020 -0.00000 0.02800
C 	C 	0.04960 0.05220 0.54480 -0.39300
C 	C 	0.98160 0.97700 0.61000 0.29500
C 	C 	0.93330 0.92200 0.56400 -0.30900
C 	C 	0.95660 0.96070 0.72300 0.06100
C 	C 	0.95040 0.40300 0.54480 0.03400
C 	C 	0.01840 0.41300 0.61000 -0.05400
C 	C 	0.06670 0.51400 0.56400 0.01600
C 	C 	0.04340 0.31630 0.72300 0.12500
C 	C 	0.95040 0.94780 0.45520 0.31200
C 	C 	0.01840 0.02300 0.39000 -0.29200
C 	C 	0.06670 0.07800 0.43600 0.23000
C 	C 	0.04340 0.03930 0.27700 0.16200
C 	C 	0.04960 0.59700 0.45520 -0.11500
C 	C 	0.98160 0.58700 0.39000 0.06100
C 	C 	0.93330 0.48600 0.43600 -0.09100
C 	C 	0.95660 0.68370 0.27700 0.11700
C 	C 	0.61870 0.47790 -0.00000 -0.05600
C 	C 	0.58280 0.38340 -0.00000 -0.02000
C 	C 	0.46950 0.40350 -0.00000 -0.04800
C 	C 	0.66410 0.26350 -0.00000 0.09600
C 	C 	0.38130 0.52210 -0.00000 -0.06100
C 	C 	0.41720 0.61660 -0.00000 -0.01400
C 	C 	0.53050 0.59650 -0.00000 -0.05100
C 	C 	0.33590 0.73650 -0.00000 0.10100
C 	C 	0.50000 0.03130 0.93740 0.34900
C 	C 	0.50000 0.96870 0.06260 0.13300
N 	N 	0.02060 0.98003 0.78194 -0.05000
N 	N 	0.96590 0.95876 0.87588 -0.09000
N 	N 	0.86760 0.93090 0.87420 -0.11300
N 	N 	0.86180 0.92828 0.77904 -0.06000
N 	N 	0.97940 0.23803 0.78194 -0.06000
N 	N 	0.03410 0.16536 0.87588 -0.12600
N 	N 	0.13240 0.19490 0.87420 -0.12700
N 	N 	0.13820 0.29268 0.77904 -0.08400
N 	N 	0.97940 0.01997 0.21806 -0.09100
N 	N 	0.03410 0.04124 0.12412 -0.20200
N 	N 	0.13240 0.06910 0.12580 -0.20300
N 	N 	0.13820 0.07172 0.22096 -0.12500
N 	N 	0.02060 0.76197 0.21806 -0.09800
N 	N 	0.96590 0.83464 0.12412 -0.14600
N 	N 	0.86760 0.80510 0.12580 -0.18000
N 	N 	0.86180 0.70732 0.22096 -0.09900
N 	N 	0.78650 0.23160 -0.00000 -0.11200
N 	N 	0.82210 0.11680 -0.00000 -0.18600
N 	N 	0.73280 0.07900 -0.00000 -0.19200
N 	N 	0.63150 0.17040 -0.00000 -0.12800
N 	N 	0.21350 0.76840 -0.00000 -0.11500
N 	N 	0.17790 0.88320 -0.00000 -0.16900
N 	N 	0.26720 0.92100 -0.00000 -0.15300
N 	N 	0.36850 0.82960 -0.00000 -0.11100
O 	O 	0.59620 0.00574 0.89092 -0.34400
O 	O 	0.40380 0.10334 0.89092 -0.32700
O 	O 	0.40380 0.99426 0.10908 -0.31700
O 	O 	0.59620 0.89666 0.10908 -0.33800
