data_crystal

_cell_length_a 9.41700
_cell_length_b 13.12800
_cell_length_c 15.91300
_cell_angle_alpha 90.00000
_cell_angle_beta  90.00000
_cell_angle_gamma 90.00000

_symmetry_space_group_name_	'P 1'
_symmetry_space_group_name_H-M	'P 1'

loop_
_symmetry_equiv_pos_as_xyz
  x,y,z

loop_
_atom_site_label
_atom_site_type_symbol
_atom_site_fract_x
_atom_site_fract_y
_atom_site_fract_z
_atom_site_charge
Zn	Zn	0.76853 0.66994 0.80100 1.21200
Zn	Zn	0.73147 0.16994 0.69900 1.21200
Zn	Zn	0.23147 0.33006 0.19900 1.21300
Zn	Zn	0.26853 0.83006 0.30100 1.21300
H 	H 	0.50430 0.69670 0.02930 0.06300
H 	H 	0.11760 0.60810 0.10980 0.08500
H 	H 	0.26920 0.51470 0.88720 0.08200
H 	H 	0.74690 0.37280 0.60980 -0.00600
H 	H 	0.82310 0.75040 0.97740 -0.00100
H 	H 	0.02670 0.54690 0.72280 -0.00400
H 	H 	0.91170 0.41540 0.48630 0.06600
H 	H 	0.07470 0.41650 0.46700 0.06900
H 	H 	0.12610 0.42840 0.60830 0.05800
H 	H 	0.03080 0.33220 0.59210 0.05900
H 	H 	0.10660 0.73070 0.80160 0.00600
H 	H 	0.99400 0.83340 0.09270 0.06600
H 	H 	0.13910 0.87400 0.05760 0.06400
H 	H 	0.98430 0.00740 0.08440 0.07000
H 	H 	0.87300 0.96020 0.02300 0.06200
H 	H 	0.99570 0.19670 0.47070 0.06000
H 	H 	0.38240 0.10810 0.39020 0.08500
H 	H 	0.23080 0.01470 0.61280 0.08200
H 	H 	0.75310 0.87280 0.89020 -0.00500
H 	H 	0.67690 0.25040 0.52260 -0.00100
H 	H 	0.47330 0.04690 0.77720 -0.00300
H 	H 	0.58830 0.91540 0.01370 0.06500
H 	H 	0.42530 0.91650 0.03300 0.06600
H 	H 	0.37390 0.92840 0.89170 0.05800
H 	H 	0.46920 0.83220 0.90790 0.05900
H 	H 	0.39340 0.23070 0.69840 0.00600
H 	H 	0.50600 0.33340 0.40730 0.06000
H 	H 	0.36090 0.37400 0.44240 0.06100
H 	H 	0.51570 0.50740 0.41560 0.07300
H 	H 	0.62700 0.46020 0.47700 0.06400
H 	H 	0.49570 0.30330 0.97070 0.06300
H 	H 	0.88240 0.39190 0.89020 0.08500
H 	H 	0.73080 0.48530 0.11280 0.08200
H 	H 	0.25310 0.62720 0.39020 -0.00600
H 	H 	0.17690 0.24960 0.02260 -0.00100
H 	H 	0.97330 0.45310 0.27720 -0.00400
H 	H 	0.08830 0.58460 0.51370 0.06600
H 	H 	0.92530 0.58350 0.53300 0.06900
H 	H 	0.87390 0.57160 0.39170 0.05800
H 	H 	0.96920 0.66780 0.40790 0.05900
H 	H 	0.89340 0.26930 0.19840 0.00600
H 	H 	0.00600 0.16660 0.90730 0.06600
H 	H 	0.86090 0.12600 0.94240 0.06400
H 	H 	0.01570 0.99260 0.91560 0.07000
H 	H 	0.12700 0.03980 0.97700 0.06200
H 	H 	0.00430 0.80330 0.52930 0.06000
H 	H 	0.61760 0.89190 0.60980 0.08500
H 	H 	0.76920 0.98530 0.38720 0.08200
H 	H 	0.24690 0.12720 0.10980 -0.00500
H 	H 	0.32310 0.74960 0.47740 -0.00100
H 	H 	0.52670 0.95310 0.22280 -0.00300
H 	H 	0.41170 0.08460 0.98630 0.06500
H 	H 	0.57470 0.08350 0.96700 0.06600
H 	H 	0.62610 0.07160 0.10830 0.05800
H 	H 	0.53080 0.16780 0.09210 0.05900
H 	H 	0.60660 0.76930 0.30160 0.00600
H 	H 	0.49400 0.66660 0.59270 0.06000
H 	H 	0.63910 0.62600 0.55760 0.06100
H 	H 	0.48430 0.49260 0.58440 0.07300
H 	H 	0.37300 0.53980 0.52300 0.06400
C 	C 	0.42030 0.66130 0.01970 -0.01900
C 	C 	0.51410 0.61310 0.87740 0.33900
C 	C 	0.31180 0.66330 0.08160 -0.03300
C 	C 	0.40400 0.60830 0.94630 -0.04300
C 	C 	0.33310 0.72430 0.15950 0.30600
C 	C 	0.18910 0.60840 0.06940 -0.08900
C 	C 	0.17490 0.55390 0.99560 0.10100
C 	C 	0.28110 0.55320 0.93570 -0.08200
C 	C 	0.78800 0.41960 0.64640 0.07500
C 	C 	0.90670 0.75650 0.94670 0.09500
C 	C 	0.94090 0.51620 0.70880 0.09800
C 	C 	0.00220 0.44300 0.50440 -0.09700
C 	C 	0.03220 0.40610 0.59130 -0.05400
C 	C 	0.06250 0.74700 0.85210 0.11000
C 	C 	0.03890 0.86650 0.04510 -0.06800
C 	C 	0.97400 0.96970 0.03240 -0.08500
C 	C 	0.07970 0.16130 0.48030 -0.01600
C 	C 	0.98590 0.11310 0.62260 0.33200
C 	C 	0.18820 0.16330 0.41840 -0.03400
C 	C 	0.09600 0.10830 0.55370 -0.04100
C 	C 	0.16690 0.22430 0.34050 0.30700
C 	C 	0.31090 0.10840 0.43060 -0.08700
C 	C 	0.32510 0.05390 0.50440 0.10000
C 	C 	0.21890 0.05320 0.56430 -0.08200
C 	C 	0.71200 0.91960 0.85360 0.07600
C 	C 	0.59330 0.25650 0.55330 0.09400
C 	C 	0.55910 0.01620 0.79120 0.09700
C 	C 	0.49780 0.94300 0.99560 -0.09300
C 	C 	0.46780 0.90610 0.90870 -0.05600
C 	C 	0.43750 0.24700 0.64790 0.11100
C 	C 	0.46110 0.36650 0.45490 -0.05400
C 	C 	0.52600 0.46970 0.46760 -0.09300
C 	C 	0.57970 0.33870 0.98030 -0.01900
C 	C 	0.48590 0.38690 0.12260 0.33900
C 	C 	0.68820 0.33670 0.91840 -0.03300
C 	C 	0.59600 0.39170 0.05370 -0.04300
C 	C 	0.66690 0.27570 0.84050 0.30600
C 	C 	0.81090 0.39160 0.93060 -0.08900
C 	C 	0.82510 0.44610 0.00440 0.10100
C 	C 	0.71890 0.44680 0.06430 -0.08200
C 	C 	0.21200 0.58040 0.35360 0.07500
C 	C 	0.09330 0.24350 0.05330 0.09500
C 	C 	0.05910 0.48380 0.29120 0.09800
C 	C 	0.99780 0.55700 0.49560 -0.09700
C 	C 	0.96780 0.59390 0.40870 -0.05400
C 	C 	0.93750 0.25300 0.14790 0.11000
C 	C 	0.96110 0.13350 0.95490 -0.06800
C 	C 	0.02600 0.03030 0.96760 -0.08500
C 	C 	0.92030 0.83870 0.51970 -0.01600
C 	C 	0.01410 0.88690 0.37740 0.33200
C 	C 	0.81180 0.83670 0.58160 -0.03400
C 	C 	0.90400 0.89170 0.44630 -0.04100
C 	C 	0.83310 0.77570 0.65950 0.30700
C 	C 	0.68910 0.89160 0.56940 -0.08700
C 	C 	0.67490 0.94610 0.49560 0.10000
C 	C 	0.78110 0.94680 0.43570 -0.08200
C 	C 	0.28800 0.08040 0.14640 0.07600
C 	C 	0.40670 0.74350 0.44670 0.09400
C 	C 	0.44090 0.98380 0.20880 0.09700
C 	C 	0.50220 0.05700 0.00440 -0.09300
C 	C 	0.53220 0.09390 0.09130 -0.05600
C 	C 	0.56250 0.75300 0.35210 0.11100
C 	C 	0.53890 0.63350 0.54510 -0.05400
C 	C 	0.47400 0.53030 0.53240 -0.09300
N 	N 	0.72380 0.47430 0.70420 -0.09200
N 	N 	0.92890 0.71910 0.87140 -0.27500
N 	N 	0.02210 0.80420 0.97170 -0.08700
N 	N 	0.81620 0.53770 0.74450 -0.23000
N 	N 	0.05200 0.49370 0.97690 -0.09400
N 	N 	0.92540 0.44570 0.65130 -0.12900
N 	N 	0.12330 0.79880 0.91100 -0.09700
N 	N 	0.77620 0.97430 0.79580 -0.09100
N 	N 	0.57110 0.21910 0.62860 -0.27600
N 	N 	0.47790 0.30420 0.52830 -0.08900
N 	N 	0.68380 0.03770 0.75550 -0.23100
N 	N 	0.44800 0.99370 0.52310 -0.09500
N 	N 	0.57460 0.94570 0.84870 -0.12800
N 	N 	0.37670 0.29880 0.58900 -0.09700
N 	N 	0.27620 0.52570 0.29580 -0.09200
N 	N 	0.07110 0.28090 0.12860 -0.27500
N 	N 	0.97790 0.19580 0.02830 -0.08700
N 	N 	0.18380 0.46230 0.25550 -0.23000
N 	N 	0.94800 0.50630 0.02310 -0.09400
N 	N 	0.07460 0.55430 0.34870 -0.12900
N 	N 	0.87670 0.20120 0.08900 -0.09700
N 	N 	0.22380 0.02570 0.20420 -0.09100
N 	N 	0.42890 0.78090 0.37140 -0.27600
N 	N 	0.52210 0.69580 0.47170 -0.08900
N 	N 	0.31620 0.96230 0.24450 -0.23100
N 	N 	0.55200 0.00630 0.47690 -0.09500
N 	N 	0.42540 0.05430 0.15130 -0.12800
N 	N 	0.62330 0.70120 0.41100 -0.09700
O 	O 	0.62560 0.66270 0.89150 -0.45400
O 	O 	0.22290 0.74090 0.20600 -0.43500
O 	O 	0.45140 0.75810 0.17470 -0.31100
O 	O 	0.49250 0.57270 0.80960 -0.30200
O 	O 	0.87440 0.16270 0.60850 -0.45300
O 	O 	0.27710 0.24090 0.29400 -0.43500
O 	O 	0.04860 0.25810 0.32530 -0.31000
O 	O 	0.00750 0.07270 0.69040 -0.29800
O 	O 	0.37440 0.33730 0.10850 -0.45400
O 	O 	0.77710 0.25910 0.79400 -0.43500
O 	O 	0.54860 0.24190 0.82530 -0.31100
O 	O 	0.50750 0.42730 0.19040 -0.30200
O 	O 	0.12560 0.83730 0.39150 -0.45300
O 	O 	0.72290 0.75910 0.70600 -0.43500
O 	O 	0.95140 0.74190 0.67470 -0.31000
O 	O 	0.99250 0.92730 0.30960 -0.29800
