data_crystal

_cell_length_a 11.66950
_cell_length_b 16.32350
_cell_length_c 16.32350
_cell_angle_alpha 90.00000
_cell_angle_beta  90.00000
_cell_angle_gamma 90.00000

_symmetry_space_group_name_	'P 1'
_symmetry_space_group_name_H-M	'P 1'

loop_
_symmetry_equiv_pos_as_xyz
  x,y,z

loop_
_atom_site_label
_atom_site_type_symbol
_atom_site_fract_x
_atom_site_fract_y
_atom_site_fract_z
_atom_site_charge
Zn	Zn	0.13561 0.38610 0.34743 1.22500
Zn	Zn	0.13561 0.61390 0.65257 1.22500
Zn	Zn	0.13561 0.65257 0.38610 1.22500
Zn	Zn	0.13561 0.34743 0.61390 1.22500
Zn	Zn	0.36439 0.11390 0.84743 1.22500
Zn	Zn	0.36439 0.88610 0.15257 1.22500
Zn	Zn	0.36439 0.84743 0.88610 1.22500
Zn	Zn	0.36439 0.15257 0.11390 1.22500
Zn	Zn	0.86439 0.61390 0.65257 1.22200
Zn	Zn	0.86439 0.38610 0.34743 1.22200
Zn	Zn	0.86439 0.34743 0.61390 1.22200
Zn	Zn	0.86439 0.65257 0.38610 1.22200
Zn	Zn	0.63561 0.88610 0.15257 1.22500
Zn	Zn	0.63561 0.11390 0.84743 1.22500
Zn	Zn	0.63561 0.15257 0.11390 1.22500
Zn	Zn	0.63561 0.84743 0.88610 1.22500
H 	H 	0.17200 0.15200 0.24000 0.00700
H 	H 	0.17200 0.84800 0.76000 0.00700
H 	H 	0.17200 0.76000 0.15200 0.00700
H 	H 	0.17200 0.24000 0.84800 0.00700
H 	H 	0.32800 0.34800 0.74000 0.00700
H 	H 	0.32800 0.65200 0.26000 0.00700
H 	H 	0.32800 0.74000 0.65200 0.00700
H 	H 	0.32800 0.26000 0.34800 0.00700
H 	H 	0.82800 0.84800 0.76000 0.01000
H 	H 	0.82800 0.15200 0.24000 0.01000
H 	H 	0.82800 0.24000 0.84800 0.01000
H 	H 	0.82800 0.76000 0.15200 0.01000
H 	H 	0.67200 0.65200 0.26000 0.00600
H 	H 	0.67200 0.34800 0.74000 0.00600
H 	H 	0.67200 0.26000 0.34800 0.00600
H 	H 	0.67200 0.74000 0.65200 0.00600
H 	H 	-0.00000 0.48300 0.40100 0.29300
H 	H 	-0.00000 0.95000 0.17100 0.01700
H 	H 	-0.00000 0.51700 0.59900 0.29300
H 	H 	0.00000 0.05000 0.82900 0.01700
H 	H 	0.00000 0.59900 0.48300 0.29300
H 	H 	0.00000 0.82900 0.95000 0.01700
H 	H 	-0.00000 0.40100 0.51700 0.29300
H 	H 	0.00000 0.17100 0.05000 0.01700
H 	H 	0.50000 0.01700 0.90100 0.29200
H 	H 	0.50000 0.55000 0.67100 0.02000
H 	H 	0.50000 0.98300 0.09900 0.29200
H 	H 	0.50000 0.45000 0.32900 0.02000
H 	H 	0.50000 0.90100 0.98300 0.29200
H 	H 	0.50000 0.67100 0.45000 0.02000
H 	H 	0.50000 0.09900 0.01700 0.29200
H 	H 	0.50000 0.32900 0.55000 0.02000
C 	C 	0.10280 0.12500 0.23280 0.11300
C 	C 	0.10350 0.04530 0.20280 -0.18500
C 	C 	0.21430 0.00260 0.18470 0.40800
C 	C 	0.10280 0.87500 0.76720 0.11300
C 	C 	0.10350 0.95470 0.79720 -0.18500
C 	C 	0.21430 0.99740 0.81530 0.40800
C 	C 	0.10280 0.76720 0.12500 0.11300
C 	C 	0.10350 0.79720 0.04530 -0.18500
C 	C 	0.21430 0.81530 0.00260 0.40800
C 	C 	0.10280 0.23280 0.87500 0.11300
C 	C 	0.10350 0.20280 0.95470 -0.18500
C 	C 	0.21430 0.18470 0.99740 0.40800
C 	C 	0.39720 0.37500 0.73280 0.11200
C 	C 	0.39650 0.45470 0.70280 -0.18100
C 	C 	0.28570 0.49740 0.68470 0.40600
C 	C 	0.39720 0.62500 0.26720 0.11200
C 	C 	0.39650 0.54530 0.29720 -0.18100
C 	C 	0.28570 0.50260 0.31530 0.40600
C 	C 	0.39720 0.73280 0.62500 0.11200
C 	C 	0.39650 0.70280 0.54530 -0.18100
C 	C 	0.28570 0.68470 0.50260 0.40600
C 	C 	0.39720 0.26720 0.37500 0.11200
C 	C 	0.39650 0.29720 0.45470 -0.18100
C 	C 	0.28570 0.31530 0.49740 0.40600
C 	C 	0.89720 0.87500 0.76720 0.09700
C 	C 	0.89650 0.95470 0.79720 -0.19700
C 	C 	0.78570 0.99740 0.81530 0.40900
C 	C 	0.89720 0.12500 0.23280 0.09700
C 	C 	0.89650 0.04530 0.20280 -0.19700
C 	C 	0.78570 0.00260 0.18470 0.40900
C 	C 	0.89720 0.23280 0.87500 0.09700
C 	C 	0.89650 0.20280 0.95470 -0.19700
C 	C 	0.78570 0.18470 0.99740 0.40900
C 	C 	0.89720 0.76720 0.12500 0.09700
C 	C 	0.89650 0.79720 0.04530 -0.19700
C 	C 	0.78570 0.81530 0.00260 0.40900
C 	C 	0.60280 0.62500 0.26720 0.11200
C 	C 	0.60350 0.54530 0.29720 -0.18200
C 	C 	0.71430 0.50260 0.31530 0.40600
C 	C 	0.60280 0.37500 0.73280 0.11200
C 	C 	0.60350 0.45470 0.70280 -0.18200
C 	C 	0.71430 0.49740 0.68470 0.40600
C 	C 	0.60280 0.26720 0.37500 0.11200
C 	C 	0.60350 0.29720 0.45470 -0.18200
C 	C 	0.71430 0.31530 0.49740 0.40600
C 	C 	0.60280 0.73280 0.62500 0.11200
C 	C 	0.60350 0.70280 0.54530 -0.18200
C 	C 	0.71430 0.68470 0.50260 0.40600
C 	C 	0.00000 0.16420 0.24960 -0.16000
C 	C 	0.00000 0.00480 0.18980 0.13200
C 	C 	0.00000 0.24840 0.28530 0.44400
C 	C 	0.00000 0.83580 0.75040 -0.16000
C 	C 	0.00000 0.99520 0.81020 0.13200
C 	C 	-0.00000 0.75160 0.71470 0.44400
C 	C 	-0.00000 0.75040 0.16420 -0.16000
C 	C 	-0.00000 0.81020 0.00480 0.13200
C 	C 	0.00000 0.71470 0.24840 0.44400
C 	C 	0.00000 0.24960 0.83580 -0.16000
C 	C 	0.00000 0.18980 0.99520 0.13200
C 	C 	0.00000 0.28530 0.75160 0.44400
C 	C 	0.50000 0.33580 0.74960 -0.17300
C 	C 	0.50000 0.49520 0.68980 0.10900
C 	C 	0.50000 0.25160 0.78530 0.42700
C 	C 	0.50000 0.66420 0.25040 -0.17300
C 	C 	0.50000 0.50480 0.31020 0.10900
C 	C 	0.50000 0.74840 0.21470 0.42700
C 	C 	0.50000 0.74960 0.66420 -0.17300
C 	C 	0.50000 0.68980 0.50480 0.10900
C 	C 	0.50000 0.78530 0.74840 0.42700
C 	C 	0.50000 0.25040 0.33580 -0.17300
C 	C 	0.50000 0.31020 0.49520 0.10900
C 	C 	0.50000 0.21470 0.25160 0.42700
O 	O 	0.09570 0.27990 0.30010 -0.50700
O 	O 	0.30110 0.04220 0.16590 -0.51400
O 	O 	0.21540 0.92570 0.18990 -0.47400
O 	O 	0.09570 0.72010 0.69990 -0.50700
O 	O 	0.30110 0.95780 0.83410 -0.51400
O 	O 	0.21540 0.07430 0.81010 -0.47400
O 	O 	0.09570 0.69990 0.27990 -0.50700
O 	O 	0.30110 0.83410 0.04220 -0.51400
O 	O 	0.21540 0.81010 0.92570 -0.47400
O 	O 	0.09570 0.30010 0.72010 -0.50700
O 	O 	0.30110 0.16590 0.95780 -0.51400
O 	O 	0.21540 0.18990 0.07430 -0.47400
O 	O 	0.40430 0.22010 0.80010 -0.50500
O 	O 	0.19890 0.45780 0.66590 -0.51200
O 	O 	0.28460 0.57430 0.68990 -0.47400
O 	O 	0.40430 0.77990 0.19990 -0.50500
O 	O 	0.19890 0.54220 0.33410 -0.51200
O 	O 	0.28460 0.42570 0.31010 -0.47400
O 	O 	0.40430 0.80010 0.77990 -0.50500
O 	O 	0.19890 0.66590 0.54220 -0.51200
O 	O 	0.28460 0.68990 0.42570 -0.47400
O 	O 	0.40430 0.19990 0.22010 -0.50500
O 	O 	0.19890 0.33410 0.45780 -0.51200
O 	O 	0.28460 0.31010 0.57430 -0.47400
O 	O 	0.90430 0.72010 0.69990 -0.52100
O 	O 	0.69890 0.95780 0.83410 -0.51500
O 	O 	0.78460 0.07430 0.81010 -0.47900
O 	O 	0.90430 0.27990 0.30010 -0.52100
O 	O 	0.69890 0.04220 0.16590 -0.51500
O 	O 	0.78460 0.92570 0.18990 -0.47900
O 	O 	0.90430 0.30010 0.72010 -0.52100
O 	O 	0.69890 0.16590 0.95780 -0.51500
O 	O 	0.78460 0.18990 0.07430 -0.47900
O 	O 	0.90430 0.69990 0.27990 -0.52100
O 	O 	0.69890 0.83410 0.04220 -0.51500
O 	O 	0.78460 0.81010 0.92570 -0.47900
O 	O 	0.59570 0.77990 0.19990 -0.50600
O 	O 	0.80110 0.54220 0.33410 -0.51800
O 	O 	0.71540 0.42570 0.31010 -0.47600
O 	O 	0.59570 0.22010 0.80010 -0.50600
O 	O 	0.80110 0.45780 0.66590 -0.51800
O 	O 	0.71540 0.57430 0.68990 -0.47600
O 	O 	0.59570 0.19990 0.22010 -0.50600
O 	O 	0.80110 0.33410 0.45780 -0.51800
O 	O 	0.71540 0.31010 0.57430 -0.47600
O 	O 	0.59570 0.80010 0.77990 -0.50600
O 	O 	0.80110 0.66590 0.54220 -0.51800
O 	O 	0.71540 0.68990 0.42570 -0.47600
O 	O 	0.00000 0.43100 0.39550 -0.81900
O 	O 	0.00000 0.56900 0.60450 -0.81900
O 	O 	0.00000 0.60450 0.43100 -0.81900
O 	O 	0.00000 0.39550 0.56900 -0.81900
O 	O 	0.50000 0.06900 0.89550 -0.82600
O 	O 	0.50000 0.93100 0.10450 -0.82600
O 	O 	0.50000 0.89550 0.93100 -0.82600
O 	O 	0.50000 0.10450 0.06900 -0.82600
