data_crystal

_cell_length_a 6.18020
_cell_length_b 23.31270
_cell_length_c 29.42180
_cell_angle_alpha 90.00000
_cell_angle_beta  90.00000
_cell_angle_gamma 95.66300

_symmetry_space_group_name_	'P 1'
_symmetry_space_group_name_H-M	'P 1'

loop_
_symmetry_equiv_pos_as_xyz
  x,y,z

loop_
_atom_site_label
_atom_site_type_symbol
_atom_site_fract_x
_atom_site_fract_y
_atom_site_fract_z
_atom_site_charge
Zn	Zn	0.52453 0.73077 0.92375 1.21600
Zn	Zn	0.47972 0.75274 0.53910 1.23900
Zn	Zn	0.47547 0.76923 0.42375 1.21600
Zn	Zn	0.52028 0.74726 0.03910 1.23900
Zn	Zn	0.47547 0.26923 0.07625 1.21600
Zn	Zn	0.52028 0.24726 0.46090 1.23900
Zn	Zn	0.52453 0.23077 0.57625 1.21600
Zn	Zn	0.47972 0.25274 0.96090 1.23900
H 	H 	0.47040 0.71010 0.75330 0.02500
H 	H 	0.80800 0.78270 0.76000 0.07800
H 	H 	0.99650 0.77020 0.82740 0.03500
H 	H 	0.12220 0.71410 0.63530 0.07600
H 	H 	0.91840 0.71500 0.56940 0.01600
H 	H 	0.49940 0.80710 0.62920 0.00900
H 	H 	0.68040 0.80590 0.69740 0.07100
H 	H 	0.77670 0.37180 0.97710 -0.01000
H 	H 	0.21490 0.51120 0.90160 0.07500
H 	H 	0.34600 0.42280 0.91710 0.02400
H 	H 	0.55990 0.52860 0.96490 0.08200
H 	H 	0.42690 0.61650 0.96030 -0.02100
H 	H 	0.92880 0.67840 0.88810 -0.00100
H 	H 	0.08310 0.59220 0.89280 0.06400
H 	H 	0.98380 0.10220 0.93920 0.03800
H 	H 	0.37210 0.94530 0.94750 0.07600
H 	H 	0.54750 0.03660 0.95800 0.03300
H 	H 	0.70390 0.93810 0.89510 0.08400
H 	H 	0.51810 0.84800 0.89070 -0.01200
H 	H 	0.97120 0.77960 0.95930 -0.01700
H 	H 	0.16980 0.86750 0.96600 0.09100
H 	H 	0.27700 0.71600 0.97800 0.60100
H 	H 	0.52960 0.78990 0.25330 0.02500
H 	H 	0.19200 0.71730 0.26000 0.07800
H 	H 	0.00350 0.72980 0.32740 0.03600
H 	H 	0.87780 0.78590 0.13530 0.07600
H 	H 	0.08160 0.78500 0.06940 0.01600
H 	H 	0.50060 0.69290 0.12920 0.00900
H 	H 	0.31960 0.69410 0.19740 0.07100
H 	H 	0.22330 0.12820 0.47710 -0.00900
H 	H 	0.78510 0.98880 0.40160 0.07400
H 	H 	0.65400 0.07720 0.41710 0.02400
H 	H 	0.44010 0.97140 0.46490 0.08200
H 	H 	0.57310 0.88350 0.46030 -0.02100
H 	H 	0.07120 0.82160 0.38810 -0.00100
H 	H 	0.91690 0.90780 0.39280 0.06400
H 	H 	0.01620 0.39780 0.43920 0.03700
H 	H 	0.62790 0.55470 0.44750 0.07600
H 	H 	0.45250 0.46340 0.45800 0.03200
H 	H 	0.29610 0.56190 0.39510 0.08400
H 	H 	0.48190 0.65200 0.39070 -0.01200
H 	H 	0.02880 0.72040 0.45930 -0.01800
H 	H 	0.83020 0.63250 0.46600 0.09200
H 	H 	0.72300 0.78400 0.47800 0.60000
H 	H 	0.52960 0.28990 0.24670 0.02500
H 	H 	0.19200 0.21730 0.24000 0.07800
H 	H 	0.00350 0.22980 0.17260 0.03500
H 	H 	0.87780 0.28590 0.36470 0.07600
H 	H 	0.08160 0.28500 0.43060 0.01600
H 	H 	0.50060 0.19290 0.37080 0.00900
H 	H 	0.31960 0.19410 0.30260 0.07100
H 	H 	0.22330 0.62820 0.02290 -0.01000
H 	H 	0.78510 0.48880 0.09840 0.07500
H 	H 	0.65400 0.57720 0.08290 0.02400
H 	H 	0.44010 0.47140 0.03510 0.08200
H 	H 	0.57310 0.38350 0.03970 -0.02100
H 	H 	0.07120 0.32160 0.11190 -0.00100
H 	H 	0.91690 0.40780 0.10720 0.06400
H 	H 	0.01620 0.89780 0.06080 0.03800
H 	H 	0.62790 0.05470 0.05250 0.07600
H 	H 	0.45250 0.96340 0.04200 0.03300
H 	H 	0.29610 0.06190 0.10490 0.08400
H 	H 	0.48190 0.15200 0.10930 -0.01200
H 	H 	0.02880 0.22040 0.04070 -0.01700
H 	H 	0.83020 0.13250 0.03400 0.09100
H 	H 	0.72300 0.28400 0.02200 0.60100
H 	H 	0.47040 0.21010 0.74670 0.02500
H 	H 	0.80800 0.28270 0.74000 0.07800
H 	H 	0.99650 0.27020 0.67260 0.03600
H 	H 	0.12220 0.21410 0.86470 0.07600
H 	H 	0.91840 0.21500 0.93060 0.01600
H 	H 	0.49940 0.30710 0.87080 0.00900
H 	H 	0.68040 0.30590 0.80260 0.07100
H 	H 	0.77670 0.87180 0.52290 -0.00900
H 	H 	0.21490 0.01120 0.59840 0.07400
H 	H 	0.34600 0.92280 0.58290 0.02400
H 	H 	0.55990 0.02860 0.53510 0.08200
H 	H 	0.42690 0.11650 0.53970 -0.02100
H 	H 	0.92880 0.17840 0.61190 -0.00100
H 	H 	0.08310 0.09220 0.60720 0.06400
H 	H 	0.98380 0.60220 0.56080 0.03700
H 	H 	0.37210 0.44530 0.55250 0.07600
H 	H 	0.54750 0.53660 0.54200 0.03200
H 	H 	0.70390 0.43810 0.60490 0.08400
H 	H 	0.51810 0.34800 0.60930 -0.01200
H 	H 	0.97120 0.27960 0.54070 -0.01800
H 	H 	0.16980 0.36750 0.53400 0.09200
H 	H 	0.27700 0.21600 0.52200 0.60000
C 	C 	0.39360 0.73460 0.83890 0.33000
C 	C 	0.25740 0.74000 0.79760 -0.12400
C 	C 	0.33290 0.72500 0.75490 0.07800
C 	C 	0.03410 0.75210 0.71930 0.07600
C 	C 	0.94510 0.76750 0.75950 -0.11500
C 	C 	0.05730 0.76070 0.79910 0.05600
C 	C 	0.92010 0.75720 0.67520 0.04800
C 	C 	0.99080 0.73200 0.63520 -0.10500
C 	C 	0.86990 0.73330 0.59585 0.06300
C 	C 	0.62450 0.78660 0.63100 0.06500
C 	C 	0.73210 0.78650 0.67180 -0.11100
C 	C 	0.15630 0.33190 0.96350 0.37200
C 	C 	0.07690 0.38870 0.95071 -0.14900
C 	C 	0.87050 0.40130 0.96300 0.09800
C 	C 	0.92690 0.49300 0.93470 0.08000
C 	C 	0.12950 0.48260 0.91850 -0.13500
C 	C 	0.20550 0.43030 0.92720 0.07300
C 	C 	0.83900 0.55000 0.92990 0.05400
C 	C 	0.64120 0.55920 0.94920 -0.12200
C 	C 	0.56140 0.61140 0.94600 0.07200
C 	C 	0.85370 0.64740 0.90440 0.07400
C 	C 	0.94670 0.59590 0.90680 -0.12300
C 	C 	0.39920 0.13860 0.95780 0.33000
C 	C 	0.28200 0.07950 0.95070 -0.11800
C 	C 	0.06570 0.06990 0.94100 0.07700
C 	C 	0.07720 0.97150 0.93800 0.07500
C 	C 	0.29230 0.97800 0.94610 -0.12300
C 	C 	0.39540 0.03200 0.95240 0.05400
C 	C 	0.95900 0.91330 0.93240 0.06800
C 	C 	0.76170 0.90610 0.90900 -0.13200
C 	C 	0.65320 0.85220 0.90630 0.08000
C 	C 	0.91600 0.81240 0.94620 0.08700
C 	C 	0.03450 0.86470 0.95040 -0.14200
C 	C 	0.60640 0.76540 0.33890 0.33000
C 	C 	0.74260 0.76000 0.29760 -0.12400
C 	C 	0.66710 0.77500 0.25490 0.07800
C 	C 	0.96590 0.74790 0.21930 0.07500
C 	C 	0.05490 0.73250 0.25950 -0.11300
C 	C 	0.94270 0.73930 0.29910 0.05400
C 	C 	0.07990 0.74280 0.17520 0.04800
C 	C 	0.00920 0.76800 0.13520 -0.10400
C 	C 	0.13010 0.76670 0.09585 0.06300
C 	C 	0.37550 0.71340 0.13100 0.06500
C 	C 	0.26790 0.71350 0.17180 -0.11100
C 	C 	0.84370 0.16810 0.46350 0.37200
C 	C 	0.92310 0.11130 0.45071 -0.14800
C 	C 	0.12950 0.09870 0.46300 0.09700
C 	C 	0.07310 0.00700 0.43470 0.07900
C 	C 	0.87050 0.01740 0.41850 -0.13300
C 	C 	0.79450 0.06970 0.42720 0.07300
C 	C 	0.16100 0.95000 0.42990 0.05500
C 	C 	0.35880 0.94080 0.44920 -0.12200
C 	C 	0.43860 0.88860 0.44600 0.07200
C 	C 	0.14630 0.85260 0.40440 0.07300
C 	C 	0.05330 0.90410 0.40680 -0.12300
C 	C 	0.60080 0.36140 0.45780 0.33000
C 	C 	0.71800 0.42050 0.45070 -0.11800
C 	C 	0.93430 0.43010 0.44100 0.07800
C 	C 	0.92280 0.52850 0.43800 0.07400
C 	C 	0.70770 0.52200 0.44610 -0.12300
C 	C 	0.60460 0.46800 0.45240 0.05500
C 	C 	0.04100 0.58670 0.43240 0.07000
C 	C 	0.23830 0.59390 0.40900 -0.13300
C 	C 	0.34680 0.64780 0.40630 0.08000
C 	C 	0.08400 0.68760 0.44620 0.08800
C 	C 	0.96550 0.63530 0.45040 -0.14400
C 	C 	0.60640 0.26540 0.16110 0.33000
C 	C 	0.74260 0.26000 0.20240 -0.12400
C 	C 	0.66710 0.27500 0.24510 0.07800
C 	C 	0.96590 0.24790 0.28070 0.07600
C 	C 	0.05490 0.23250 0.24050 -0.11500
C 	C 	0.94270 0.23930 0.20090 0.05600
C 	C 	0.07990 0.24280 0.32480 0.04800
C 	C 	0.00920 0.26800 0.36480 -0.10500
C 	C 	0.13010 0.26670 0.40415 0.06300
C 	C 	0.37550 0.21340 0.36900 0.06500
C 	C 	0.26790 0.21350 0.32820 -0.11100
C 	C 	0.84370 0.66810 0.03650 0.37200
C 	C 	0.92310 0.61130 0.04929 -0.14900
C 	C 	0.12950 0.59870 0.03700 0.09800
C 	C 	0.07310 0.50700 0.06530 0.08000
C 	C 	0.87050 0.51740 0.08150 -0.13500
C 	C 	0.79450 0.56970 0.07280 0.07300
C 	C 	0.16100 0.45000 0.07010 0.05400
C 	C 	0.35880 0.44080 0.05080 -0.12200
C 	C 	0.43860 0.38860 0.05400 0.07200
C 	C 	0.14630 0.35260 0.09560 0.07400
C 	C 	0.05330 0.40410 0.09320 -0.12300
C 	C 	0.60080 0.86140 0.04220 0.33000
C 	C 	0.71800 0.92050 0.04930 -0.11800
C 	C 	0.93430 0.93010 0.05900 0.07700
C 	C 	0.92280 0.02850 0.06200 0.07500
C 	C 	0.70770 0.02200 0.05390 -0.12300
C 	C 	0.60460 0.96800 0.04760 0.05400
C 	C 	0.04100 0.08670 0.06760 0.06800
C 	C 	0.23830 0.09390 0.09100 -0.13200
C 	C 	0.34680 0.14780 0.09370 0.08000
C 	C 	0.08400 0.18760 0.05380 0.08700
C 	C 	0.96550 0.13530 0.04960 -0.14200
C 	C 	0.39360 0.23460 0.66110 0.33000
C 	C 	0.25740 0.24000 0.70240 -0.12400
C 	C 	0.33290 0.22500 0.74510 0.07800
C 	C 	0.03410 0.25210 0.78070 0.07500
C 	C 	0.94510 0.26750 0.74050 -0.11300
C 	C 	0.05730 0.26070 0.70090 0.05400
C 	C 	0.92010 0.25720 0.82480 0.04800
C 	C 	0.99080 0.23200 0.86480 -0.10400
C 	C 	0.86990 0.23330 0.90415 0.06300
C 	C 	0.62450 0.28660 0.86900 0.06500
C 	C 	0.73210 0.28650 0.82820 -0.11100
C 	C 	0.15630 0.83190 0.53650 0.37200
C 	C 	0.07690 0.88870 0.54929 -0.14800
C 	C 	0.87050 0.90130 0.53700 0.09700
C 	C 	0.92690 0.99300 0.56530 0.07900
C 	C 	0.12950 0.98260 0.58150 -0.13300
C 	C 	0.20550 0.93030 0.57280 0.07300
C 	C 	0.83900 0.05000 0.57010 0.05500
C 	C 	0.64120 0.05920 0.55080 -0.12200
C 	C 	0.56140 0.11140 0.55400 0.07200
C 	C 	0.85370 0.14740 0.59560 0.07300
C 	C 	0.94670 0.09590 0.59320 -0.12300
C 	C 	0.39920 0.63860 0.54220 0.33000
C 	C 	0.28200 0.57950 0.54930 -0.11800
C 	C 	0.06570 0.56990 0.55900 0.07800
C 	C 	0.07720 0.47150 0.56200 0.07400
C 	C 	0.29230 0.47800 0.55390 -0.12300
C 	C 	0.39540 0.53200 0.54760 0.05500
C 	C 	0.95900 0.41330 0.56760 0.07000
C 	C 	0.76170 0.40610 0.59100 -0.13300
C 	C 	0.65320 0.35220 0.59370 0.08000
C 	C 	0.91600 0.31240 0.55380 0.08800
C 	C 	0.03450 0.36470 0.54960 -0.14400
N 	N 	0.22540 0.73010 0.71690 -0.13300
N 	N 	0.68530 0.75960 0.59368 -0.24800
N 	N 	0.79550 0.45230 0.95606 -0.13700
N 	N 	0.66470 0.65580 0.92358 -0.26700
N 	N 	0.96250 0.01760 0.93390 -0.12600
N 	N 	0.72550 0.80520 0.92424 -0.27100
N 	N 	0.77460 0.76990 0.21690 -0.13200
N 	N 	0.31470 0.74040 0.09368 -0.24800
N 	N 	0.20450 0.04770 0.45606 -0.13700
N 	N 	0.33530 0.84420 0.42358 -0.26700
N 	N 	0.03750 0.48240 0.43390 -0.12700
N 	N 	0.27450 0.69480 0.42424 -0.27100
N 	N 	0.77460 0.26990 0.28310 -0.13300
N 	N 	0.31470 0.24040 0.40632 -0.24800
N 	N 	0.20450 0.54770 0.04394 -0.13700
N 	N 	0.33530 0.34420 0.07642 -0.26700
N 	N 	0.03750 0.98240 0.06610 -0.12600
N 	N 	0.27450 0.19480 0.07576 -0.27100
N 	N 	0.22540 0.23010 0.78310 -0.13200
N 	N 	0.68530 0.25960 0.90632 -0.24800
N 	N 	0.79550 0.95230 0.54394 -0.13700
N 	N 	0.66470 0.15580 0.57642 -0.26700
N 	N 	0.96250 0.51760 0.56610 -0.12700
N 	N 	0.72550 0.30520 0.57576 -0.27100
O 	O 	0.30060 0.73960 0.87720 -0.45900
O 	O 	0.58770 0.72600 0.83496 -0.33500
O 	O 	0.05500 0.30111 0.99212 -0.36400
O 	O 	0.32840 0.32013 0.94333 -0.45300
O 	O 	0.28640 0.18145 0.95188 -0.44300
O 	O 	0.59280 0.14310 0.96815 -0.32700
O 	O 	0.38290 0.72850 0.98200 -1.12000
O 	O 	0.69940 0.76040 0.37720 -0.45900
O 	O 	0.41230 0.77400 0.33496 -0.33500
O 	O 	0.94500 0.19889 0.49212 -0.36400
O 	O 	0.67160 0.17987 0.44333 -0.45300
O 	O 	0.71360 0.31855 0.45188 -0.44300
O 	O 	0.40720 0.35690 0.46815 -0.32700
O 	O 	0.61710 0.77150 0.48200 -1.12000
O 	O 	0.69940 0.26040 0.12280 -0.45900
O 	O 	0.41230 0.27400 0.16504 -0.33500
O 	O 	0.94500 0.69889 0.00788 -0.36400
O 	O 	0.67160 0.67987 0.05667 -0.45300
O 	O 	0.71360 0.81855 0.04812 -0.44300
O 	O 	0.40720 0.85690 0.03185 -0.32700
O 	O 	0.61710 0.27150 0.01800 -1.12000
O 	O 	0.30060 0.23960 0.62280 -0.45900
O 	O 	0.58770 0.22600 0.66504 -0.33500
O 	O 	0.05500 0.80111 0.50788 -0.36400
O 	O 	0.32840 0.82013 0.55667 -0.45300
O 	O 	0.28640 0.68145 0.54812 -0.44300
O 	O 	0.59280 0.64310 0.53185 -0.32700
O 	O 	0.38290 0.22850 0.51800 -1.12000
