data_crystal

_cell_length_a 7.30070
_cell_length_b 8.83120
_cell_length_c 8.83120
_cell_angle_alpha 90.00000
_cell_angle_beta  90.00000
_cell_angle_gamma 90.00000

_symmetry_space_group_name_	'P 1'
_symmetry_space_group_name_H-M	'P 1'

loop_
_symmetry_equiv_pos_as_xyz
  x,y,z

loop_
_atom_site_label
_atom_site_type_symbol
_atom_site_fract_x
_atom_site_fract_y
_atom_site_fract_z
_atom_site_charge
Zn	Zn	0.75000 0.00000 -0.00000 1.07100
Zn	Zn	0.25000 0.00000 -0.00000 1.07200
H 	H 	0.72554 0.38200 -0.00000 -0.01400
H 	H 	0.72554 0.61800 -0.00000 -0.00400
H 	H 	0.22554 0.00000 0.38200 -0.01400
H 	H 	0.22554 0.00000 0.61800 -0.00400
H 	H 	0.27446 0.61800 -0.00000 -0.00500
H 	H 	0.27446 0.38200 -0.00000 -0.01400
H 	H 	0.77446 0.00000 0.38200 -0.01500
H 	H 	0.77446 0.00000 0.61800 -0.00500
C 	C 	-0.00000 0.43928 -0.00000 0.00600
C 	C 	-0.00000 0.56072 -0.00000 -0.03200
C 	C 	0.50000 0.00000 0.43928 0.00100
C 	C 	0.50000 0.00000 0.56072 -0.03300
C 	C 	0.84929 0.34876 -0.00000 -0.02500
C 	C 	0.84929 0.65124 -0.00000 0.01300
C 	C 	0.34929 0.00000 0.34876 -0.01900
C 	C 	0.34929 0.00000 0.65124 0.01600
C 	C 	0.15071 0.65124 -0.00000 0.01600
C 	C 	0.15071 0.34876 -0.00000 -0.02100
C 	C 	0.65071 0.00000 0.34876 -0.01900
C 	C 	0.65071 0.00000 0.65124 0.01600
N 	N 	0.90686 0.20230 -0.00000 -0.28200
N 	N 	0.90686 0.79770 -0.00000 -0.21700
N 	N 	0.40686 0.00000 0.20230 -0.28100
N 	N 	0.40686 0.00000 0.79770 -0.21500
N 	N 	0.09314 0.79770 -0.00000 -0.21500
N 	N 	0.09314 0.20230 -0.00000 -0.28000
N 	N 	0.59314 0.00000 0.20230 -0.28200
N 	N 	0.59314 0.00000 0.79770 -0.21500
