data_crystal

_cell_length_a 11.12480
_cell_length_b 17.63230
_cell_length_c 17.63230
_cell_angle_alpha 78.64630
_cell_angle_beta  71.61100
_cell_angle_gamma 71.61110

_symmetry_space_group_name_	'P 1'
_symmetry_space_group_name_H-M	'P 1'

loop_
_symmetry_equiv_pos_as_xyz
  x,y,z

loop_
_atom_site_label
_atom_site_type_symbol
_atom_site_fract_x
_atom_site_fract_y
_atom_site_fract_z
_atom_site_charge
Zn	Zn	0.65515 0.32287 0.92819 1.19500
Zn	Zn	0.09379 0.92819 0.32287 1.19400
Zn	Zn	0.84485 0.57181 0.17713 1.19500
Zn	Zn	0.40621 0.17713 0.57181 1.19500
Zn	Zn	0.34485 0.67713 0.07181 1.19400
Zn	Zn	0.90621 0.07181 0.67713 1.19300
Zn	Zn	0.15515 0.42819 0.82287 1.19400
Zn	Zn	0.59379 0.82287 0.42819 1.19400
Zn	Zn	0.75000 0.25000 0.25000 1.19700
Zn	Zn	0.25000 0.75000 0.75000 1.19700
H 	H 	0.74220 0.11160 0.15500 0.04400
H 	H 	0.68870 0.14080 0.02480 0.03900
H 	H 	0.88380 0.33340 0.76620 0.04100
H 	H 	0.87030 0.54770 0.83850 0.02700
H 	H 	0.66630 0.50540 0.88020 0.04700
H 	H 	0.99120 0.15500 0.11160 0.04500
H 	H 	0.14570 0.02480 0.14080 0.03900
H 	H 	0.01660 0.76620 0.33340 0.04100
H 	H 	0.74350 0.83850 0.54770 0.02700
H 	H 	0.94810 0.88020 0.50540 0.04800
H 	H 	0.75780 0.34500 0.38840 0.04400
H 	H 	0.81130 0.47520 0.35920 0.03900
H 	H 	0.61620 0.73380 0.16660 0.04100
H 	H 	0.62970 0.66150 0.95230 0.02700
H 	H 	0.83370 0.61980 0.99460 0.04700
H 	H 	0.50880 0.38840 0.34500 0.04400
H 	H 	0.35430 0.35920 0.47520 0.03900
H 	H 	0.48340 0.16660 0.73380 0.04100
H 	H 	0.75650 0.95230 0.66150 0.02900
H 	H 	0.55190 0.99460 0.61980 0.04800
H 	H 	0.25780 0.88840 0.84500 0.04400
H 	H 	0.31130 0.85920 0.97520 0.03900
H 	H 	0.11620 0.66660 0.23380 0.04100
H 	H 	0.12970 0.45230 0.16150 0.02700
H 	H 	0.33370 0.49460 0.11980 0.04700
H 	H 	0.00880 0.84500 0.88840 0.04500
H 	H 	0.85430 0.97520 0.85920 0.03900
H 	H 	0.98340 0.23380 0.66660 0.04100
H 	H 	0.25650 0.16150 0.45230 0.02700
H 	H 	0.05190 0.11980 0.49460 0.04800
H 	H 	0.24220 0.65500 0.61160 0.04400
H 	H 	0.18870 0.52480 0.64080 0.03900
H 	H 	0.38380 0.26620 0.83340 0.04100
H 	H 	0.37030 0.33850 0.04770 0.02700
H 	H 	0.16630 0.38020 0.00540 0.04700
H 	H 	0.49120 0.61160 0.65500 0.04400
H 	H 	0.64570 0.64080 0.52480 0.03900
H 	H 	0.51660 0.83340 0.26620 0.04100
H 	H 	0.24350 0.04770 0.33850 0.02900
H 	H 	0.44810 0.00540 0.38020 0.04800
C 	C 	0.71130 0.16370 0.12950 0.01000
C 	C 	0.68210 0.17980 0.05720 0.01500
C 	C 	0.64721 0.28909 0.10269 0.15700
C 	C 	0.85750 0.28660 0.76820 0.00500
C 	C 	0.90773 0.37217 0.90237 0.16700
C 	C 	0.86340 0.49490 0.85990 0.01800
C 	C 	0.75060 0.47150 0.88290 0.00800
C 	C 	0.99550 0.12950 0.16370 0.00600
C 	C 	0.08090 0.05720 0.17980 0.01800
C 	C 	0.96101 0.10269 0.28909 0.15400
C 	C 	0.08770 0.76820 0.28660 0.00500
C 	C 	0.81773 0.90237 0.37217 0.16700
C 	C 	0.78180 0.85990 0.49490 0.01800
C 	C 	0.89500 0.88290 0.47150 0.00800
C 	C 	0.78870 0.37050 0.33630 0.01000
C 	C 	0.81790 0.44280 0.32020 0.01500
C 	C 	0.85279 0.39731 0.21091 0.15700
C 	C 	0.64250 0.73180 0.21340 0.00500
C 	C 	0.59227 0.59763 0.12783 0.16700
C 	C 	0.63660 0.64010 0.00510 0.01700
C 	C 	0.74940 0.61710 0.02850 0.00800
C 	C 	0.50450 0.33630 0.37050 0.01000
C 	C 	0.41910 0.32020 0.44280 0.01500
C 	C 	0.53899 0.21091 0.39731 0.15700
C 	C 	0.41230 0.21340 0.73180 0.00500
C 	C 	0.68227 0.12783 0.59763 0.16700
C 	C 	0.71820 0.00510 0.64010 0.01400
C 	C 	0.60500 0.02850 0.61710 0.00800
C 	C 	0.28870 0.83630 0.87050 0.01000
C 	C 	0.31790 0.82020 0.94280 0.01500
C 	C 	0.35279 0.71091 0.89731 0.15700
C 	C 	0.14250 0.71340 0.23180 0.00500
C 	C 	0.09227 0.62783 0.09763 0.16700
C 	C 	0.13660 0.50510 0.14010 0.01800
C 	C 	0.24940 0.52850 0.11710 0.00800
C 	C 	0.00450 0.87050 0.83630 0.00600
C 	C 	0.91910 0.94280 0.82020 0.01800
C 	C 	0.03899 0.89731 0.71091 0.15400
C 	C 	0.91230 0.23180 0.71340 0.00500
C 	C 	0.18227 0.09763 0.62783 0.16700
C 	C 	0.21820 0.14010 0.50510 0.01800
C 	C 	0.10500 0.11710 0.52850 0.00800
C 	C 	0.21130 0.62950 0.66370 0.01000
C 	C 	0.18210 0.55720 0.67980 0.01500
C 	C 	0.14721 0.60269 0.78909 0.15700
C 	C 	0.35750 0.26820 0.78660 0.00500
C 	C 	0.40773 0.40237 0.87217 0.16700
C 	C 	0.36340 0.35990 0.99490 0.01700
C 	C 	0.25060 0.38290 0.97150 0.00800
C 	C 	0.49550 0.66370 0.62950 0.01000
C 	C 	0.58090 0.67980 0.55720 0.01500
C 	C 	0.46101 0.78909 0.60269 0.15700
C 	C 	0.58770 0.78660 0.26820 0.00500
C 	C 	0.31773 0.87217 0.40237 0.16700
C 	C 	0.28180 0.99490 0.35990 0.01400
C 	C 	0.39500 0.97150 0.38290 0.00800
C 	C 	0.75870 0.19520 0.80480 0.18900
C 	C 	0.24130 0.80480 0.19520 0.18900
C 	C 	0.74130 0.69520 0.30480 0.19000
C 	C 	0.25870 0.30480 0.69520 0.19000
N 	N 	0.68941 0.23392 0.15886 -0.25600
N 	N 	0.64187 0.26078 0.03948 -0.25700
N 	N 	0.60438 0.37278 0.11246 -0.02500
N 	N 	0.75245 0.26085 0.82985 -0.26100
N 	N 	0.77752 0.39242 0.91034 -0.25500
N 	N 	0.96464 0.43104 0.87188 -0.26400
N 	N 	0.97849 0.29361 0.92801 -0.02500
N 	N 	0.91781 0.15886 0.23392 -0.25600
N 	N 	0.05787 0.03948 0.26078 -0.25600
N 	N 	0.91038 0.11246 0.37278 -0.02400
N 	N 	0.15685 0.82985 0.26085 -0.26100
N 	N 	0.91972 0.91034 0.39242 -0.25400
N 	N 	0.73244 0.87188 0.43104 -0.26300
N 	N 	0.79989 0.92801 0.29361 -0.02500
N 	N 	0.81059 0.34114 0.26608 -0.25600
N 	N 	0.85813 0.46052 0.23922 -0.25700
N 	N 	0.89562 0.38754 0.12722 -0.02500
N 	N 	0.74755 0.67015 0.23915 -0.26100
N 	N 	0.72248 0.58966 0.10758 -0.25500
N 	N 	0.53536 0.62812 0.06896 -0.26300
N 	N 	0.52151 0.57199 0.20639 -0.02500
N 	N 	0.58219 0.26608 0.34114 -0.25600
N 	N 	0.44213 0.23922 0.46052 -0.25700
N 	N 	0.58962 0.12722 0.38754 -0.02500
N 	N 	0.34315 0.23915 0.67015 -0.26100
N 	N 	0.58028 0.10758 0.58966 -0.25500
N 	N 	0.76756 0.06896 0.62812 -0.26300
N 	N 	0.70011 0.20639 0.57199 -0.02500
N 	N 	0.31059 0.76608 0.84114 -0.25600
N 	N 	0.35813 0.73922 0.96052 -0.25700
N 	N 	0.39562 0.62722 0.88754 -0.02500
N 	N 	0.24755 0.73915 0.17015 -0.26100
N 	N 	0.22248 0.60758 0.08966 -0.25500
N 	N 	0.03536 0.56896 0.12812 -0.26400
N 	N 	0.02151 0.70639 0.07199 -0.02500
N 	N 	0.08219 0.84114 0.76608 -0.25600
N 	N 	0.94213 0.96052 0.73922 -0.25600
N 	N 	0.08962 0.88754 0.62722 -0.02400
N 	N 	0.84315 0.17015 0.73915 -0.26100
N 	N 	0.08028 0.08966 0.60758 -0.25400
N 	N 	0.26756 0.12812 0.56896 -0.26300
N 	N 	0.20011 0.07199 0.70639 -0.02500
N 	N 	0.18941 0.65886 0.73392 -0.25600
N 	N 	0.14187 0.53948 0.76078 -0.25700
N 	N 	0.10438 0.61246 0.87278 -0.02500
N 	N 	0.25245 0.32985 0.76085 -0.26100
N 	N 	0.27752 0.41034 0.89242 -0.25500
N 	N 	0.46464 0.37188 0.93104 -0.26300
N 	N 	0.47849 0.42801 0.79361 -0.02500
N 	N 	0.41781 0.73392 0.65886 -0.25600
N 	N 	0.55787 0.76078 0.53948 -0.25700
N 	N 	0.41038 0.87278 0.61246 -0.02500
N 	N 	0.65685 0.76085 0.32985 -0.26100
N 	N 	0.41972 0.89242 0.41034 -0.25500
N 	N 	0.23244 0.93104 0.37188 -0.26300
N 	N 	0.29989 0.79361 0.42801 -0.02500
N 	N 	0.66070 0.15190 0.84810 -0.02700
N 	N 	0.33930 0.84810 0.15190 -0.02700
N 	N 	0.83930 0.65190 0.34810 -0.02700
N 	N 	0.16070 0.34810 0.65190 -0.02700
O 	O 	0.60777 0.39318 0.17448 -0.16100
O 	O 	0.56350 0.42032 0.05888 -0.17000
O 	O 	0.92057 0.24087 0.95299 -0.15800
O 	O 	0.57773 0.17931 0.90763 -0.16600
O 	O 	0.09544 0.28309 0.92443 -0.15500
O 	O 	0.82457 0.17448 0.39318 -0.16200
O 	O 	0.95730 0.05888 0.42032 -0.17100
O 	O 	0.88557 0.95299 0.24087 -0.15700
O 	O 	0.33533 0.90763 0.17931 -0.16600
O 	O 	0.69704 0.92443 0.28309 -0.15600
O 	O 	0.89223 0.32552 0.10682 -0.16100
O 	O 	0.93650 0.44112 0.07968 -0.17000
O 	O 	0.57943 0.54701 0.25913 -0.15700
O 	O 	0.92227 0.59237 0.32069 -0.16500
O 	O 	0.40456 0.57557 0.21691 -0.15600
O 	O 	0.67543 0.10682 0.32552 -0.16200
O 	O 	0.54270 0.07968 0.44112 -0.17000
O 	O 	0.61443 0.25913 0.54701 -0.15700
O 	O 	0.16467 0.32069 0.59237 -0.16500
O 	O 	0.80296 0.21691 0.57557 -0.15600
O 	O 	0.39223 0.60682 0.82552 -0.16100
O 	O 	0.43650 0.57968 0.94112 -0.17000
O 	O 	0.07943 0.75913 0.04701 -0.15800
O 	O 	0.42227 0.82069 0.09237 -0.16600
O 	O 	0.90456 0.71691 0.07557 -0.15500
O 	O 	0.17543 0.82552 0.60682 -0.16200
O 	O 	0.04270 0.94112 0.57968 -0.17100
O 	O 	0.11443 0.04701 0.75913 -0.15700
O 	O 	0.66467 0.09237 0.82069 -0.16600
O 	O 	0.30296 0.07557 0.71691 -0.15600
O 	O 	0.10777 0.67448 0.89318 -0.16100
O 	O 	0.06350 0.55888 0.92032 -0.17000
O 	O 	0.42057 0.45299 0.74087 -0.15700
O 	O 	0.07773 0.40763 0.67931 -0.16500
O 	O 	0.59544 0.42443 0.78309 -0.15600
O 	O 	0.32457 0.89318 0.67448 -0.16200
O 	O 	0.45730 0.92032 0.55888 -0.17000
O 	O 	0.38557 0.74087 0.45299 -0.15700
O 	O 	0.83533 0.67931 0.40763 -0.16500
O 	O 	0.19704 0.78309 0.42443 -0.15600
