data_crystal

_cell_length_a 11.06440
_cell_length_b 16.77580
_cell_length_c 22.43170
_cell_angle_alpha 90.00000
_cell_angle_beta  90.00000
_cell_angle_gamma 90.00000

_symmetry_space_group_name_	'P 1'
_symmetry_space_group_name_H-M	'P 1'

loop_
_symmetry_equiv_pos_as_xyz
  x,y,z

loop_
_atom_site_label
_atom_site_type_symbol
_atom_site_fract_x
_atom_site_fract_y
_atom_site_fract_z
_atom_site_charge
Zn	Zn	0.09374 0.05903 0.50876 1.21800
Zn	Zn	0.90626 0.44097 0.50876 1.21800
Zn	Zn	0.09374 0.94097 0.99124 1.21500
Zn	Zn	0.90626 0.55903 0.99124 1.21700
Zn	Zn	0.90626 0.94097 0.49124 1.21700
Zn	Zn	0.09374 0.55903 0.49124 1.21700
Zn	Zn	0.90626 0.05903 0.00876 1.21500
Zn	Zn	0.09374 0.44097 0.00876 1.21700
H 	H 	0.32970 0.30270 0.56330 0.08800
H 	H 	0.41950 0.57000 0.77870 0.16400
H 	H 	0.19780 0.65410 0.63760 0.17300
H 	H 	0.15820 0.73220 0.75790 0.16000
H 	H 	0.41150 0.82980 0.69420 0.18200
H 	H 	0.05550 0.67750 0.83740 -0.03000
H 	H 	0.52370 0.12720 0.49120 0.09000
H 	H 	0.35030 0.05430 0.48480 -0.00300
H 	H 	0.31380 0.91730 0.62950 -0.03100
H 	H 	0.31680 0.51580 0.85770 -0.03300
H 	H 	0.16020 0.22290 0.55550 -0.00100
H 	H 	0.10010 0.74070 0.57450 -0.02700
H 	H 	0.67030 0.19730 0.56330 0.08800
H 	H 	0.58050 0.93000 0.77870 0.16300
H 	H 	0.80220 0.84590 0.63760 0.17300
H 	H 	0.84180 0.76780 0.75790 0.16000
H 	H 	0.58850 0.67020 0.69420 0.18200
H 	H 	0.94450 0.82250 0.83740 -0.03000
H 	H 	0.47630 0.37280 0.49120 0.09000
H 	H 	0.64970 0.44570 0.48480 -0.00300
H 	H 	0.68620 0.58270 0.62950 -0.03100
H 	H 	0.68320 0.98420 0.85770 -0.03400
H 	H 	0.83980 0.27710 0.55550 -0.00100
H 	H 	0.89990 0.75930 0.57450 -0.02700
H 	H 	0.32970 0.69730 0.93670 0.08800
H 	H 	0.41950 0.43000 0.72130 0.16400
H 	H 	0.19780 0.34590 0.86240 0.17300
H 	H 	0.15820 0.26780 0.74210 0.16000
H 	H 	0.41150 0.17020 0.80580 0.18200
H 	H 	0.05550 0.32250 0.66260 -0.03000
H 	H 	0.52370 0.87280 0.00880 0.09400
H 	H 	0.35030 0.94570 0.01520 0.00200
H 	H 	0.31380 0.08270 0.87050 -0.03000
H 	H 	0.31680 0.48420 0.64230 -0.03300
H 	H 	0.16020 0.77710 0.94450 -0.00100
H 	H 	0.10010 0.25930 0.92550 -0.02700
H 	H 	0.67030 0.80270 0.93670 0.08800
H 	H 	0.58050 0.07000 0.72130 0.16400
H 	H 	0.80220 0.15410 0.86240 0.17400
H 	H 	0.84180 0.23220 0.74210 0.16000
H 	H 	0.58850 0.32980 0.80580 0.18200
H 	H 	0.94450 0.17750 0.66260 -0.03000
H 	H 	0.47630 0.62720 0.00880 0.09200
H 	H 	0.64970 0.55430 0.01520 -0.00300
H 	H 	0.68620 0.41730 0.87050 -0.03100
H 	H 	0.68320 0.01580 0.64230 -0.03300
H 	H 	0.83980 0.72290 0.94450 -0.00100
H 	H 	0.89990 0.24070 0.92550 -0.02700
H 	H 	0.67030 0.69730 0.43670 0.08800
H 	H 	0.58050 0.43000 0.22130 0.16400
H 	H 	0.80220 0.34590 0.36240 0.17300
H 	H 	0.84180 0.26780 0.24210 0.16000
H 	H 	0.58850 0.17020 0.30580 0.18200
H 	H 	0.94450 0.32250 0.16260 -0.03000
H 	H 	0.47630 0.87280 0.50880 0.09000
H 	H 	0.64970 0.94570 0.51520 -0.00300
H 	H 	0.68620 0.08270 0.37050 -0.03100
H 	H 	0.68320 0.48420 0.14230 -0.03300
H 	H 	0.83980 0.77710 0.44450 -0.00100
H 	H 	0.89990 0.25930 0.42550 -0.02700
H 	H 	0.32970 0.80270 0.43670 0.08800
H 	H 	0.41950 0.07000 0.22130 0.16300
H 	H 	0.19780 0.15410 0.36240 0.17300
H 	H 	0.15820 0.23220 0.24210 0.16000
H 	H 	0.41150 0.32980 0.30580 0.18200
H 	H 	0.05550 0.17750 0.16260 -0.03000
H 	H 	0.52370 0.62720 0.50880 0.09000
H 	H 	0.35030 0.55430 0.51520 -0.00300
H 	H 	0.31380 0.41730 0.37050 -0.03100
H 	H 	0.31680 0.01580 0.14230 -0.03400
H 	H 	0.16020 0.72290 0.44450 -0.00100
H 	H 	0.10010 0.24070 0.42550 -0.02700
H 	H 	0.67030 0.30270 0.06330 0.08800
H 	H 	0.58050 0.57000 0.27870 0.16400
H 	H 	0.80220 0.65410 0.13760 0.17300
H 	H 	0.84180 0.73220 0.25790 0.16000
H 	H 	0.58850 0.82980 0.19420 0.18200
H 	H 	0.94450 0.67750 0.33740 -0.03000
H 	H 	0.47630 0.12720 0.99120 0.09400
H 	H 	0.64970 0.05430 0.98480 0.00200
H 	H 	0.68620 0.91730 0.12950 -0.03000
H 	H 	0.68320 0.51580 0.35770 -0.03300
H 	H 	0.83980 0.22290 0.05550 -0.00100
H 	H 	0.89990 0.74070 0.07450 -0.02700
H 	H 	0.32970 0.19730 0.06330 0.08800
H 	H 	0.41950 0.93000 0.27870 0.16400
H 	H 	0.19780 0.84590 0.13760 0.17400
H 	H 	0.15820 0.76780 0.25790 0.16000
H 	H 	0.41150 0.67020 0.19420 0.18200
H 	H 	0.05550 0.82250 0.33740 -0.03000
H 	H 	0.52370 0.37280 0.99120 0.09200
H 	H 	0.35030 0.44570 0.98480 -0.00300
H 	H 	0.31380 0.58270 0.12950 -0.03100
H 	H 	0.31680 0.98420 0.35770 -0.03300
H 	H 	0.16020 0.27710 0.05550 -0.00100
H 	H 	0.10010 0.75930 0.07450 -0.02700
C 	C 	0.33620 0.25190 0.54690 -0.14300
C 	C 	0.34600 0.59180 0.79050 -0.35100
C 	C 	0.21930 0.70770 0.63690 -0.36700
C 	C 	0.18990 0.68860 0.77820 -0.35100
C 	C 	0.34730 0.81240 0.67070 -0.35600
C 	C 	0.10470 0.55510 0.90610 0.44900
C 	C 	0.29960 0.65580 0.76100 0.36100
C 	C 	0.12890 0.65550 0.82550 0.22700
C 	C 	0.45080 0.14850 0.50430 -0.14600
C 	C 	0.34630 0.10520 0.50120 0.09800
C 	C 	0.28850 0.86450 0.63200 0.22700
C 	C 	0.12390 0.89700 0.55970 0.44800
C 	C 	0.30870 0.73520 0.67350 0.36900
C 	C 	0.17450 0.59030 0.85590 -0.26300
C 	C 	0.19370 0.83900 0.59750 -0.26000
C 	C 	0.28430 0.55930 0.83770 0.22800
C 	C 	0.44530 0.22510 0.52750 0.06900
C 	C 	0.23430 0.20360 0.54240 0.09400
C 	C 	0.16140 0.75930 0.59920 0.23200
C 	C 	0.66380 0.24810 0.54690 -0.14300
C 	C 	0.65400 0.90820 0.79050 -0.35000
C 	C 	0.78070 0.79230 0.63690 -0.36700
C 	C 	0.81010 0.81140 0.77820 -0.35000
C 	C 	0.65270 0.68760 0.67070 -0.35600
C 	C 	0.89530 0.94490 0.90610 0.44400
C 	C 	0.70040 0.84420 0.76100 0.36000
C 	C 	0.87110 0.84450 0.82550 0.22500
C 	C 	0.54920 0.35150 0.50430 -0.14600
C 	C 	0.65370 0.39480 0.50120 0.09800
C 	C 	0.71150 0.63550 0.63200 0.22600
C 	C 	0.87610 0.60300 0.55970 0.44800
C 	C 	0.69130 0.76480 0.67350 0.36900
C 	C 	0.82550 0.90970 0.85590 -0.26100
C 	C 	0.80630 0.66100 0.59750 -0.26000
C 	C 	0.71570 0.94070 0.83770 0.22600
C 	C 	0.55470 0.27490 0.52750 0.06900
C 	C 	0.76570 0.29640 0.54240 0.09400
C 	C 	0.83860 0.74070 0.59920 0.23200
C 	C 	0.33620 0.74810 0.95310 -0.14400
C 	C 	0.34600 0.40820 0.70950 -0.35100
C 	C 	0.21930 0.29230 0.86310 -0.36600
C 	C 	0.18990 0.31140 0.72180 -0.35100
C 	C 	0.34730 0.18760 0.82930 -0.35500
C 	C 	0.10470 0.44490 0.59390 0.44900
C 	C 	0.29960 0.34420 0.73900 0.36100
C 	C 	0.12890 0.34450 0.67450 0.22700
C 	C 	0.45080 0.85150 0.99570 -0.15000
C 	C 	0.34630 0.89480 0.99880 0.09200
C 	C 	0.28850 0.13550 0.86800 0.22600
C 	C 	0.12390 0.10300 0.94030 0.44800
C 	C 	0.30870 0.26480 0.82650 0.36900
C 	C 	0.17450 0.40970 0.64410 -0.26300
C 	C 	0.19370 0.16100 0.90250 -0.25900
C 	C 	0.28430 0.44070 0.66230 0.22800
C 	C 	0.44530 0.77490 0.97250 0.07000
C 	C 	0.23430 0.79640 0.95760 0.09400
C 	C 	0.16140 0.24070 0.90080 0.23100
C 	C 	0.66380 0.75190 0.95310 -0.14300
C 	C 	0.65400 0.09180 0.70950 -0.35100
C 	C 	0.78070 0.20770 0.86310 -0.36700
C 	C 	0.81010 0.18860 0.72180 -0.35100
C 	C 	0.65270 0.31240 0.82930 -0.35600
C 	C 	0.89530 0.05510 0.59390 0.45000
C 	C 	0.70040 0.15580 0.73900 0.36200
C 	C 	0.87110 0.15550 0.67450 0.22700
C 	C 	0.54920 0.64850 0.99570 -0.14800
C 	C 	0.65370 0.60520 0.99880 0.09800
C 	C 	0.71150 0.36450 0.86800 0.22700
C 	C 	0.87610 0.39700 0.94030 0.44800
C 	C 	0.69130 0.23520 0.82650 0.36900
C 	C 	0.82550 0.09030 0.64410 -0.26300
C 	C 	0.80630 0.33900 0.90250 -0.26000
C 	C 	0.71570 0.05930 0.66230 0.22900
C 	C 	0.55470 0.72510 0.97250 0.06900
C 	C 	0.76570 0.70360 0.95760 0.09400
C 	C 	0.83860 0.25930 0.90080 0.23200
C 	C 	0.66380 0.74810 0.45310 -0.14300
C 	C 	0.65400 0.40820 0.20950 -0.35100
C 	C 	0.78070 0.29230 0.36310 -0.36700
C 	C 	0.81010 0.31140 0.22180 -0.35100
C 	C 	0.65270 0.18760 0.32930 -0.35600
C 	C 	0.89530 0.44490 0.09390 0.44900
C 	C 	0.70040 0.34420 0.23900 0.36100
C 	C 	0.87110 0.34450 0.17450 0.22700
C 	C 	0.54920 0.85150 0.49570 -0.14600
C 	C 	0.65370 0.89480 0.49880 0.09800
C 	C 	0.71150 0.13550 0.36800 0.22700
C 	C 	0.87610 0.10300 0.44030 0.44800
C 	C 	0.69130 0.26480 0.32650 0.36900
C 	C 	0.82550 0.40970 0.14410 -0.26300
C 	C 	0.80630 0.16100 0.40250 -0.26000
C 	C 	0.71570 0.44070 0.16230 0.22800
C 	C 	0.55470 0.77490 0.47250 0.06900
C 	C 	0.76570 0.79640 0.45760 0.09400
C 	C 	0.83860 0.24070 0.40080 0.23200
C 	C 	0.33620 0.75190 0.45310 -0.14300
C 	C 	0.34600 0.09180 0.20950 -0.35000
C 	C 	0.21930 0.20770 0.36310 -0.36700
C 	C 	0.18990 0.18860 0.22180 -0.35000
C 	C 	0.34730 0.31240 0.32930 -0.35600
C 	C 	0.10470 0.05510 0.09390 0.44400
C 	C 	0.29960 0.15580 0.23900 0.36000
C 	C 	0.12890 0.15550 0.17450 0.22500
C 	C 	0.45080 0.64850 0.49570 -0.14600
C 	C 	0.34630 0.60520 0.49880 0.09800
C 	C 	0.28850 0.36450 0.36800 0.22600
C 	C 	0.12390 0.39700 0.44030 0.44800
C 	C 	0.30870 0.23520 0.32650 0.36900
C 	C 	0.17450 0.09030 0.14410 -0.26100
C 	C 	0.19370 0.33900 0.40250 -0.26000
C 	C 	0.28430 0.05930 0.16230 0.22600
C 	C 	0.44530 0.72510 0.47250 0.06900
C 	C 	0.23430 0.70360 0.45760 0.09400
C 	C 	0.16140 0.25930 0.40080 0.23200
C 	C 	0.66380 0.25190 0.04690 -0.14400
C 	C 	0.65400 0.59180 0.29050 -0.35100
C 	C 	0.78070 0.70770 0.13690 -0.36600
C 	C 	0.81010 0.68860 0.27820 -0.35100
C 	C 	0.65270 0.81240 0.17070 -0.35500
C 	C 	0.89530 0.55510 0.40610 0.44900
C 	C 	0.70040 0.65580 0.26100 0.36100
C 	C 	0.87110 0.65550 0.32550 0.22700
C 	C 	0.54920 0.14850 0.00430 -0.15000
C 	C 	0.65370 0.10520 0.00120 0.09200
C 	C 	0.71150 0.86450 0.13200 0.22600
C 	C 	0.87610 0.89700 0.05970 0.44800
C 	C 	0.69130 0.73520 0.17350 0.36900
C 	C 	0.82550 0.59030 0.35590 -0.26300
C 	C 	0.80630 0.83900 0.09750 -0.25900
C 	C 	0.71570 0.55930 0.33770 0.22800
C 	C 	0.55470 0.22510 0.02750 0.07000
C 	C 	0.76570 0.20360 0.04240 0.09400
C 	C 	0.83860 0.75930 0.09920 0.23100
C 	C 	0.33620 0.24810 0.04690 -0.14300
C 	C 	0.34600 0.90820 0.29050 -0.35100
C 	C 	0.21930 0.79230 0.13690 -0.36700
C 	C 	0.18990 0.81140 0.27820 -0.35100
C 	C 	0.34730 0.68760 0.17070 -0.35600
C 	C 	0.10470 0.94490 0.40610 0.45000
C 	C 	0.29960 0.84420 0.26100 0.36200
C 	C 	0.12890 0.84450 0.32550 0.22700
C 	C 	0.45080 0.35150 0.00430 -0.14800
C 	C 	0.34630 0.39480 0.00120 0.09800
C 	C 	0.28850 0.63550 0.13200 0.22700
C 	C 	0.12390 0.60300 0.05970 0.44800
C 	C 	0.30870 0.76480 0.17350 0.36900
C 	C 	0.17450 0.90970 0.35590 -0.26300
C 	C 	0.19370 0.66100 0.09750 -0.26000
C 	C 	0.28430 0.94070 0.33770 0.22900
C 	C 	0.44530 0.27490 0.02750 0.06900
C 	C 	0.23430 0.29640 0.04240 0.09400
C 	C 	0.16140 0.74070 0.09920 0.23200
N 	N 	0.24020 0.13070 0.51990 -0.25400
N 	N 	0.75980 0.36930 0.51990 -0.25400
N 	N 	0.24020 0.86930 0.98010 -0.25400
N 	N 	0.75980 0.63070 0.98010 -0.25500
N 	N 	0.75980 0.86930 0.48010 -0.25400
N 	N 	0.24020 0.63070 0.48010 -0.25400
N 	N 	0.75980 0.13070 0.01990 -0.25400
N 	N 	0.24020 0.36930 0.01990 -0.25500
O 	O 	0.15000 0.49550 0.93220 -0.48000
O 	O 	0.16700 0.96520 0.55330 -0.47900
O 	O 	0.00610 0.58640 0.91894 -0.48000
O 	O 	0.02520 0.87360 0.53858 -0.47700
O 	O 	0.36630 0.68470 0.71390 -0.34500
O 	O 	0.85000 0.00450 0.93220 -0.47500
O 	O 	0.83300 0.53480 0.55330 -0.47900
O 	O 	0.99390 0.91360 0.91894 -0.48000
O 	O 	0.97480 0.62640 0.53858 -0.47700
O 	O 	0.63370 0.81530 0.71390 -0.34500
O 	O 	0.15000 0.50450 0.56780 -0.48000
O 	O 	0.16700 0.03480 0.94670 -0.47600
O 	O 	0.00610 0.41360 0.58106 -0.48000
O 	O 	0.02520 0.12640 0.96142 -0.47500
O 	O 	0.36630 0.31530 0.78610 -0.34500
O 	O 	0.85000 0.99550 0.56780 -0.48100
O 	O 	0.83300 0.46520 0.94670 -0.47800
O 	O 	0.99390 0.08640 0.58106 -0.48000
O 	O 	0.97480 0.37360 0.96142 -0.47700
O 	O 	0.63370 0.18470 0.78610 -0.34500
O 	O 	0.85000 0.50450 0.06780 -0.48000
O 	O 	0.83300 0.03480 0.44670 -0.47900
O 	O 	0.99390 0.41360 0.08106 -0.48000
O 	O 	0.97480 0.12640 0.46142 -0.47700
O 	O 	0.63370 0.31530 0.28610 -0.34500
O 	O 	0.15000 0.99550 0.06780 -0.47500
O 	O 	0.16700 0.46520 0.44670 -0.47900
O 	O 	0.00610 0.08640 0.08106 -0.48000
O 	O 	0.02520 0.37360 0.46142 -0.47700
O 	O 	0.36630 0.18470 0.28610 -0.34500
O 	O 	0.85000 0.49550 0.43220 -0.48000
O 	O 	0.83300 0.96520 0.05330 -0.47600
O 	O 	0.99390 0.58640 0.41894 -0.48000
O 	O 	0.97480 0.87360 0.03858 -0.47500
O 	O 	0.63370 0.68470 0.21390 -0.34500
O 	O 	0.15000 0.00450 0.43220 -0.48100
O 	O 	0.16700 0.53480 0.05330 -0.47800
O 	O 	0.00610 0.91360 0.41894 -0.48000
O 	O 	0.02520 0.62640 0.03858 -0.47700
O 	O 	0.36630 0.81530 0.21390 -0.34500
