data_crystal

_cell_length_a 7.02490
_cell_length_b 7.02490
_cell_length_c 19.93600
_cell_angle_alpha 90.00000
_cell_angle_beta  90.00000
_cell_angle_gamma 90.00000

_symmetry_space_group_name_	'P 1'
_symmetry_space_group_name_H-M	'P 1'

loop_
_symmetry_equiv_pos_as_xyz
  x,y,z

loop_
_atom_site_label
_atom_site_type_symbol
_atom_site_fract_x
_atom_site_fract_y
_atom_site_fract_z
_atom_site_charge
Zn	Zn	0.00000 0.00000 0.72403 1.17700
Zn	Zn	0.50000 0.50000 0.22403 1.23300
Zn	Zn	0.50000 0.50000 0.77597 1.23400
Zn	Zn	0.00000 0.00000 0.27597 1.17800
H 	H 	0.83300 0.23350 0.94930 0.04500
H 	H 	0.16700 0.76650 0.94930 0.03200
H 	H 	0.26650 0.33300 0.44930 0.04700
H 	H 	0.73350 0.66700 0.44930 0.09800
H 	H 	0.66700 0.73350 0.55070 0.09800
H 	H 	0.33300 0.26650 0.55070 0.04700
H 	H 	0.23350 0.83300 0.05070 0.04500
H 	H 	0.76650 0.16700 0.05070 0.03200
C 	C 	0.89870 0.13780 0.92690 0.07900
C 	C 	0.89780 0.12950 0.85740 0.03100
C 	C 	0.78100 0.25530 0.81190 0.30800
C 	C 	0.10130 0.86220 0.92690 0.07900
C 	C 	0.10220 0.87050 0.85740 0.02500
C 	C 	0.21900 0.74470 0.81190 0.30700
C 	C 	0.36220 0.39870 0.42690 -0.06000
C 	C 	0.37050 0.39780 0.35740 -0.02200
C 	C 	0.24470 0.28100 0.31190 0.31600
C 	C 	0.63780 0.60130 0.42690 -0.06600
C 	C 	0.62950 0.60220 0.35740 0.02000
C 	C 	0.75530 0.71900 0.31190 0.30100
C 	C 	0.60130 0.63780 0.57310 -0.06600
C 	C 	0.60220 0.62950 0.64260 0.02000
C 	C 	0.71900 0.75530 0.68810 0.30100
C 	C 	0.39870 0.36220 0.57310 -0.06000
C 	C 	0.39780 0.37050 0.64260 -0.02200
C 	C 	0.28100 0.24470 0.68810 0.31600
C 	C 	0.13780 0.89870 0.07310 0.07900
C 	C 	0.12950 0.89780 0.14260 0.03100
C 	C 	0.25530 0.78100 0.18810 0.30800
C 	C 	0.86220 0.10130 0.07310 0.07900
C 	C 	0.87050 0.10220 0.14260 0.02500
C 	C 	0.74470 0.21900 0.18810 0.30700
C 	C 	0.00000 0.00000 0.96260 -0.16500
C 	C 	0.50000 0.50000 0.46260 0.03300
C 	C 	0.50000 0.50000 0.53740 0.03300
C 	C 	0.00000 0.00000 0.03740 -0.16500
N 	N 	0.00000 0.00000 0.82480 -0.33100
N 	N 	0.50000 0.50000 0.32480 -0.21900
N 	N 	0.50000 0.50000 0.67520 -0.21900
N 	N 	0.00000 0.00000 0.17520 -0.33100
O 	O 	0.66390 0.36540 0.83965 -0.41600
O 	O 	0.80580 0.23590 0.75045 -0.39600
O 	O 	0.33610 0.63460 0.83965 -0.42000
O 	O 	0.19420 0.76410 0.75045 -0.40500
O 	O 	0.13460 0.16390 0.33965 -0.49100
O 	O 	0.26410 0.30580 0.25045 -0.45000
O 	O 	0.86540 0.83610 0.33965 -0.32400
O 	O 	0.73590 0.69420 0.25045 -0.36700
O 	O 	0.83610 0.86540 0.66035 -0.32400
O 	O 	0.69420 0.73590 0.74955 -0.36700
O 	O 	0.16390 0.13460 0.66035 -0.49100
O 	O 	0.30580 0.26410 0.74955 -0.45000
O 	O 	0.36540 0.66390 0.16035 -0.41600
O 	O 	0.23590 0.80580 0.24955 -0.39600
O 	O 	0.63460 0.33610 0.16035 -0.42000
O 	O 	0.76410 0.19420 0.24955 -0.40500
