data_crystal

_cell_length_a 7.06490
_cell_length_b 7.06490
_cell_length_c 19.77500
_cell_angle_alpha 90.00000
_cell_angle_beta  90.00000
_cell_angle_gamma 90.00000

_symmetry_space_group_name_	'P 1'
_symmetry_space_group_name_H-M	'P 1'

loop_
_symmetry_equiv_pos_as_xyz
  x,y,z

loop_
_atom_site_label
_atom_site_type_symbol
_atom_site_fract_x
_atom_site_fract_y
_atom_site_fract_z
_atom_site_charge
Zn	Zn	0.00000 0.00000 0.72154 1.18400
Zn	Zn	0.50000 0.50000 0.22154 1.23500
Zn	Zn	0.50000 0.50000 0.77846 1.23500
Zn	Zn	0.00000 0.00000 0.27846 1.18400
H 	H 	0.79980 0.79980 0.94900 0.03400
H 	H 	0.20020 0.20020 0.94900 0.05300
H 	H 	0.70020 0.29980 0.44900 0.07300
H 	H 	0.29980 0.70020 0.44900 0.07300
H 	H 	0.70020 0.29980 0.55100 0.07300
H 	H 	0.29980 0.70020 0.55100 0.07300
H 	H 	0.79980 0.79980 0.05100 0.03400
H 	H 	0.20020 0.20020 0.05100 0.05300
C 	C 	0.00000 0.00000 0.96240 -0.13900
C 	C 	0.50000 0.50000 0.46240 0.03400
C 	C 	0.50000 0.50000 0.53760 0.03400
C 	C 	0.00000 0.00000 0.03760 -0.13900
C 	C 	0.88160 0.88160 0.92650 0.14000
C 	C 	0.88670 0.88670 0.85600 0.10400
C 	C 	0.76410 0.76410 0.81110 0.31500
C 	C 	0.11840 0.11840 0.92650 -0.02600
C 	C 	0.11330 0.11330 0.85600 -0.05100
C 	C 	0.23590 0.23590 0.81110 0.32600
C 	C 	0.61840 0.38160 0.42650 -0.06600
C 	C 	0.61330 0.38670 0.35600 -0.00000
C 	C 	0.73590 0.26410 0.31110 0.32100
C 	C 	0.38160 0.61840 0.42650 -0.06600
C 	C 	0.38670 0.61330 0.35600 -0.00000
C 	C 	0.26410 0.73590 0.31110 0.32100
C 	C 	0.61840 0.38160 0.57350 -0.06600
C 	C 	0.61330 0.38670 0.64400 -0.00000
C 	C 	0.73590 0.26410 0.68890 0.32100
C 	C 	0.38160 0.61840 0.57350 -0.06600
C 	C 	0.38670 0.61330 0.64400 -0.00000
C 	C 	0.26410 0.73590 0.68890 0.32100
C 	C 	0.88160 0.88160 0.07350 0.14000
C 	C 	0.88670 0.88670 0.14400 0.10400
C 	C 	0.76410 0.76410 0.18890 0.31500
C 	C 	0.11840 0.11840 0.07350 -0.02600
C 	C 	0.11330 0.11330 0.14400 -0.05100
C 	C 	0.23590 0.23590 0.18890 0.32600
N 	N 	0.00000 0.00000 0.82360 -0.31700
N 	N 	0.50000 0.50000 0.32360 -0.21900
N 	N 	0.50000 0.50000 0.67640 -0.21900
N 	N 	-0.00000 -0.00000 0.17640 -0.31700
O 	O 	0.65280 0.65280 0.83940 -0.41600
O 	O 	0.78490 0.78490 0.74930 -0.35600
O 	O 	0.34720 0.34720 0.83940 -0.44300
O 	O 	0.21510 0.21510 0.74930 -0.45600
O 	O 	0.84720 0.15280 0.33940 -0.41900
O 	O 	0.71510 0.28490 0.24930 -0.41000
O 	O 	0.15280 0.84720 0.33940 -0.41900
O 	O 	0.28490 0.71510 0.24930 -0.41000
O 	O 	0.84720 0.15280 0.66060 -0.41900
O 	O 	0.71510 0.28490 0.75070 -0.41000
O 	O 	0.15280 0.84720 0.66060 -0.41900
O 	O 	0.28490 0.71510 0.75070 -0.41000
O 	O 	0.65280 0.65280 0.16060 -0.41600
O 	O 	0.78490 0.78490 0.25070 -0.35600
O 	O 	0.34720 0.34720 0.16060 -0.44300
O 	O 	0.21510 0.21510 0.25070 -0.45600
