data_crystal

_cell_length_a 9.72800
_cell_length_b 11.67200
_cell_length_c 14.55400
_cell_angle_alpha 93.46600
_cell_angle_beta  96.36700
_cell_angle_gamma 93.17500

_symmetry_space_group_name_	'P 1'
_symmetry_space_group_name_H-M	'P 1'

loop_
_symmetry_equiv_pos_as_xyz
  x,y,z

loop_
_atom_site_label
_atom_site_type_symbol
_atom_site_fract_x
_atom_site_fract_y
_atom_site_fract_z
_atom_site_charge
Zn	Zn	0.13538 0.96233 0.97337 1.21600
Zn	Zn	0.86462 0.03767 0.02663 1.21600
H 	H 	0.04440 0.25650 0.26620 0.01100
H 	H 	0.16540 0.36530 0.38830 0.09100
H 	H 	0.51360 0.34760 0.26430 0.07700
H 	H 	0.39470 0.23140 0.14550 0.01500
H 	H 	0.35460 0.34250 0.51520 0.08100
H 	H 	0.48580 0.53410 0.26910 0.23900
H 	H 	0.50900 0.65920 0.31610 0.23200
H 	H 	0.63540 0.58280 0.30890 0.23200
H 	H 	0.85930 0.79530 0.20580 0.01200
H 	H 	0.83770 0.68110 0.32800 0.07300
H 	H 	0.23350 0.60780 0.32870 0.08600
H 	H 	0.25150 0.71370 0.20140 0.00300
H 	H 	0.85600 0.46940 0.36310 0.07800
H 	H 	0.22850 0.72200 0.47070 0.24100
H 	H 	0.20900 0.73370 0.57620 0.23700
H 	H 	0.31160 0.64690 0.54040 0.24400
H 	H 	0.40870 0.09040 0.96100 -0.02500
H 	H 	0.56960 0.11360 0.85840 0.12100
H 	H 	0.35600 0.87380 0.68990 0.10700
H 	H 	0.20490 0.85170 0.79720 -0.02400
H 	H 	0.65620 0.95400 0.70580 0.09800
H 	H 	0.62810 0.08420 0.69750 0.08700
H 	H 	0.38010 0.10000 0.60380 0.04400
H 	H 	0.51300 0.14510 0.56150 0.04100
H 	H 	0.69110 0.01650 0.53310 0.04600
H 	H 	0.67440 0.88710 0.55640 0.04700
H 	H 	0.95560 0.74350 0.73380 0.01000
H 	H 	0.83460 0.63470 0.61170 0.09000
H 	H 	0.48640 0.65240 0.73570 0.07700
H 	H 	0.60530 0.76860 0.85450 0.01500
H 	H 	0.64540 0.65750 0.48480 0.08100
H 	H 	0.51420 0.46590 0.73090 0.23900
H 	H 	0.49100 0.34080 0.68390 0.23200
H 	H 	0.36460 0.41720 0.69110 0.23200
H 	H 	0.14070 0.20470 0.79420 0.01200
H 	H 	0.16230 0.31890 0.67200 0.07300
H 	H 	0.76650 0.39220 0.67130 0.08600
H 	H 	0.74850 0.28630 0.79860 0.00300
H 	H 	0.14400 0.53060 0.63690 0.07800
H 	H 	0.77150 0.27800 0.52930 0.24100
H 	H 	0.79100 0.26630 0.42380 0.23700
H 	H 	0.68840 0.35310 0.45960 0.24400
H 	H 	0.59130 0.90960 0.03900 -0.02500
H 	H 	0.43040 0.88640 0.14160 0.12100
H 	H 	0.64400 0.12620 0.31010 0.10700
H 	H 	0.79510 0.14830 0.20280 -0.02400
H 	H 	0.34380 0.04600 0.29420 0.09800
H 	H 	0.37190 0.91580 0.30250 0.08700
H 	H 	0.61990 0.90000 0.39620 0.04400
H 	H 	0.48700 0.85490 0.43850 0.04100
H 	H 	0.30890 0.98350 0.46690 0.04600
H 	H 	0.32560 0.11290 0.44360 0.04700
C 	C 	0.13180 0.15110 0.11720 0.40400
C 	C 	0.20580 0.23060 0.19310 -0.15400
C 	C 	0.13910 0.27320 0.26630 0.08400
C 	C 	0.21150 0.33980 0.33900 -0.16500
C 	C 	0.35370 0.37010 0.34040 0.10100
C 	C 	0.41980 0.32840 0.26560 -0.16900
C 	C 	0.34830 0.25930 0.19390 0.07800
C 	C 	0.42920 0.43840 0.41990 -0.08400
C 	C 	0.41390 0.40630 0.50910 -0.16000
C 	C 	0.51840 0.53650 0.40990 0.19900
C 	C 	0.53900 0.58230 0.31770 -0.71400
C 	C 	0.06920 0.84460 0.11290 0.38600
C 	C 	0.05680 0.76750 0.19100 -0.15400
C 	C 	0.93500 0.75690 0.22990 0.08100
C 	C 	0.92260 0.69010 0.30480 -0.16200
C 	C 	0.03570 0.63690 0.34490 0.10700
C 	C 	0.15750 0.64560 0.30430 -0.17800
C 	C 	0.16880 0.70960 0.22790 0.08200
C 	C 	0.01990 0.56850 0.42620 -0.08000
C 	C 	0.91390 0.48140 0.41850 -0.15500
C 	C 	0.10840 0.58770 0.50990 0.20900
C 	C 	0.22510 0.68120 0.52580 -0.72300
C 	C 	0.39740 0.04500 0.90570 0.14900
C 	C 	0.49450 0.06030 0.84350 -0.24400
C 	C 	0.47960 0.99770 0.76120 0.19300
C 	C 	0.36970 0.91930 0.74520 -0.23200
C 	C 	0.27850 0.90670 0.80990 0.12600
C 	C 	0.58460 0.00690 0.69160 -0.20400
C 	C 	0.44790 0.07930 0.56260 -0.06100
C 	C 	0.62460 0.95170 0.53440 -0.06500
C 	C 	0.86820 0.84890 0.88280 0.40400
C 	C 	0.79420 0.76940 0.80690 -0.15400
C 	C 	0.86090 0.72680 0.73370 0.08400
C 	C 	0.78850 0.66020 0.66100 -0.16500
C 	C 	0.64630 0.62990 0.65960 0.10100
C 	C 	0.58020 0.67160 0.73440 -0.16900
C 	C 	0.65170 0.74070 0.80610 0.07800
C 	C 	0.57080 0.56160 0.58010 -0.08400
C 	C 	0.58610 0.59370 0.49090 -0.16000
C 	C 	0.48160 0.46350 0.59010 0.19900
C 	C 	0.46100 0.41770 0.68230 -0.71400
C 	C 	0.93080 0.15540 0.88710 0.38600
C 	C 	0.94320 0.23250 0.80900 -0.15400
C 	C 	0.06500 0.24310 0.77010 0.08100
C 	C 	0.07740 0.30990 0.69520 -0.16200
C 	C 	0.96430 0.36310 0.65510 0.10700
C 	C 	0.84250 0.35440 0.69570 -0.17800
C 	C 	0.83120 0.29040 0.77210 0.08200
C 	C 	0.98010 0.43150 0.57380 -0.08000
C 	C 	0.08610 0.51860 0.58150 -0.15500
C 	C 	0.89160 0.41230 0.49010 0.20900
C 	C 	0.77490 0.31880 0.47420 -0.72300
C 	C 	0.60260 0.95500 0.09430 0.14900
C 	C 	0.50550 0.93970 0.15650 -0.24400
C 	C 	0.52040 0.00230 0.23880 0.19300
C 	C 	0.63030 0.08070 0.25480 -0.23200
C 	C 	0.72150 0.09330 0.19010 0.12600
C 	C 	0.41540 0.99310 0.30840 -0.20400
C 	C 	0.55210 0.92070 0.43740 -0.06100
C 	C 	0.37540 0.04830 0.46560 -0.06500
N 	N 	0.29060 0.96960 0.89020 -0.28100
N 	N 	0.52190 0.98120 0.59690 -0.07400
N 	N 	0.70940 0.03040 0.10980 -0.28100
N 	N 	0.47810 0.01880 0.40310 -0.07400
O 	O 	0.20420 0.09050 0.07018 -0.46700
O 	O 	0.99990 0.14990 0.10810 -0.46400
O 	O 	0.17340 0.84180 0.06932 -0.43900
O 	O 	0.97080 0.90800 0.09606 -0.47900
O 	O 	0.79580 0.90950 0.92982 -0.46700
O 	O 	0.00010 0.85010 0.89190 -0.46400
O 	O 	0.82660 0.15820 0.93068 -0.43900
O 	O 	0.02920 0.09200 0.90394 -0.47900
