data_crystal

_cell_length_a 16.03460
_cell_length_b 16.03460
_cell_length_c 26.47100
_cell_angle_alpha 84.31170
_cell_angle_beta  84.31170
_cell_angle_gamma 84.36830

_symmetry_space_group_name_	'P 1'
_symmetry_space_group_name_H-M	'P 1'

loop_
_symmetry_equiv_pos_as_xyz
  x,y,z

loop_
_atom_site_label
_atom_site_type_symbol
_atom_site_fract_x
_atom_site_fract_y
_atom_site_fract_z
_atom_site_charge
Zn	Zn	0.72190 0.31994 0.49331 1.21700
Zn	Zn	0.90117 0.30635 0.47211 1.21600
Zn	Zn	0.31994 0.72190 0.99331 1.21800
Zn	Zn	0.30635 0.90117 0.97211 1.21600
Zn	Zn	0.68006 0.27810 0.00669 1.21800
Zn	Zn	0.69365 0.09883 0.02789 1.21600
Zn	Zn	0.27810 0.68006 0.50669 1.21800
Zn	Zn	0.09883 0.69365 0.52789 1.21700
H 	H 	0.67770 0.55590 0.39380 -0.04200
H 	H 	0.67660 0.68160 0.34450 0.16100
H 	H 	0.92620 0.66200 0.33020 0.17400
H 	H 	0.92790 0.53610 0.37960 -0.04500
H 	H 	0.69750 0.81750 0.29920 0.03400
H 	H 	0.71690 0.74470 0.26280 0.02900
H 	H 	0.64980 0.91420 0.22270 0.02900
H 	H 	0.71100 0.92440 0.17250 0.03300
H 	H 	0.60040 0.69640 0.16110 0.15500
H 	H 	0.49270 0.69250 0.10980 -0.02700
H 	H 	0.47030 0.94070 0.09110 -0.02700
H 	H 	0.57750 0.94730 0.14270 0.15800
H 	H 	0.85420 0.90860 0.27730 0.02900
H 	H 	0.82970 0.97030 0.22990 0.02800
H 	H 	0.65080 0.05220 0.34200 0.17000
H 	H 	0.67420 0.15160 0.39390 -0.03700
H 	H 	0.91550 0.13470 0.34400 -0.02700
H 	H 	0.89200 0.02860 0.29270 0.14300
H 	H 	0.88990 0.79130 0.21690 0.02300
H 	H 	0.82290 0.76570 0.18310 0.02500
H 	H 	0.95970 0.72630 0.15080 0.16000
H 	H 	0.08700 0.70700 0.10190 -0.03500
H 	H 	0.07240 0.94700 0.05200 -0.03400
H 	H 	0.94370 0.96870 0.09810 0.17400
H 	H 	0.02830 0.39270 0.51620 -0.00400
H 	H 	0.17000 0.38940 0.51790 0.10600
H 	H 	0.19580 0.20340 0.42600 0.10500
H 	H 	0.05060 0.20880 0.42870 -0.00600
H 	H 	0.32100 0.24760 0.45570 0.06900
H 	H 	0.29900 0.37820 0.51390 0.05800
H 	H 	0.44630 0.22190 0.46770 0.08400
H 	H 	0.59150 0.21210 0.46900 0.00600
H 	H 	0.57440 0.43800 0.52460 0.00000
H 	H 	0.42930 0.44770 0.52330 0.09200
H 	H 	0.55590 0.67770 0.89380 -0.04200
H 	H 	0.68160 0.67660 0.84450 0.16200
H 	H 	0.66200 0.92620 0.83020 0.17300
H 	H 	0.53610 0.92790 0.87960 -0.04500
H 	H 	0.81750 0.69750 0.79920 0.03400
H 	H 	0.74470 0.71690 0.76280 0.02900
H 	H 	0.91420 0.64980 0.72270 0.02800
H 	H 	0.92440 0.71100 0.67250 0.03300
H 	H 	0.69640 0.60040 0.66110 0.15600
H 	H 	0.69250 0.49270 0.60980 -0.02700
H 	H 	0.94070 0.47030 0.59110 -0.02800
H 	H 	0.94730 0.57750 0.64270 0.15800
H 	H 	0.90860 0.85420 0.77730 0.02800
H 	H 	0.97030 0.82970 0.72990 0.02700
H 	H 	0.05220 0.65080 0.84200 0.17100
H 	H 	0.15160 0.67420 0.89390 -0.03700
H 	H 	0.13470 0.91550 0.84400 -0.02800
H 	H 	0.02860 0.89200 0.79270 0.14400
H 	H 	0.79130 0.88990 0.71690 0.02300
H 	H 	0.76570 0.82290 0.68310 0.02500
H 	H 	0.72630 0.95970 0.65080 0.16000
H 	H 	0.70700 0.08700 0.60190 -0.03500
H 	H 	0.94700 0.07240 0.55200 -0.03400
H 	H 	0.96870 0.94370 0.59810 0.17300
H 	H 	0.39270 0.02830 0.01620 -0.00700
H 	H 	0.38940 0.17000 0.01790 0.10400
H 	H 	0.20340 0.19580 0.92600 0.10500
H 	H 	0.20880 0.05060 0.92870 -0.00600
H 	H 	0.24760 0.32100 0.95570 0.07000
H 	H 	0.37820 0.29900 0.01390 0.05700
H 	H 	0.22190 0.44630 0.96770 0.08400
H 	H 	0.21210 0.59150 0.96900 0.00600
H 	H 	0.43800 0.57440 0.02460 0.00000
H 	H 	0.44770 0.42930 0.02330 0.09200
H 	H 	0.44410 0.32230 0.10620 -0.04200
H 	H 	0.31840 0.32340 0.15550 0.16200
H 	H 	0.33800 0.07380 0.16980 0.17300
H 	H 	0.46390 0.07210 0.12040 -0.04500
H 	H 	0.18250 0.30250 0.20080 0.03400
H 	H 	0.25530 0.28310 0.23720 0.02900
H 	H 	0.08580 0.35020 0.27730 0.02800
H 	H 	0.07560 0.28900 0.32750 0.03300
H 	H 	0.30360 0.39960 0.33890 0.15600
H 	H 	0.30750 0.50730 0.39020 -0.02700
H 	H 	0.05930 0.52970 0.40890 -0.02800
H 	H 	0.05270 0.42250 0.35730 0.15800
H 	H 	0.09140 0.14580 0.22270 0.02800
H 	H 	0.02970 0.17030 0.27010 0.02700
H 	H 	0.94780 0.34920 0.15800 0.17100
H 	H 	0.84840 0.32580 0.10610 -0.03700
H 	H 	0.86530 0.08450 0.15600 -0.02800
H 	H 	0.97140 0.10800 0.20730 0.14400
H 	H 	0.20870 0.11010 0.28310 0.02300
H 	H 	0.23430 0.17710 0.31690 0.02500
H 	H 	0.27370 0.04030 0.34920 0.16000
H 	H 	0.29300 0.91300 0.39810 -0.03500
H 	H 	0.05300 0.92760 0.44800 -0.03400
H 	H 	0.03130 0.05630 0.40190 0.17300
H 	H 	0.60730 0.97170 0.98380 -0.00700
H 	H 	0.61060 0.83000 0.98210 0.10400
H 	H 	0.79660 0.80420 0.07400 0.10500
H 	H 	0.79120 0.94940 0.07130 -0.00600
H 	H 	0.75240 0.67900 0.04430 0.07000
H 	H 	0.62180 0.70100 0.98610 0.05700
H 	H 	0.77810 0.55370 0.03230 0.08400
H 	H 	0.78790 0.40850 0.03100 0.00600
H 	H 	0.56200 0.42560 0.97540 0.00000
H 	H 	0.55230 0.57070 0.97670 0.09200
H 	H 	0.32230 0.44410 0.60620 -0.04200
H 	H 	0.32340 0.31840 0.65550 0.16100
H 	H 	0.07380 0.33800 0.66980 0.17400
H 	H 	0.07210 0.46390 0.62040 -0.04500
H 	H 	0.30250 0.18250 0.70080 0.03400
H 	H 	0.28310 0.25530 0.73720 0.02900
H 	H 	0.35020 0.08580 0.77730 0.02900
H 	H 	0.28900 0.07560 0.82750 0.03300
H 	H 	0.39960 0.30360 0.83890 0.15500
H 	H 	0.50730 0.30750 0.89020 -0.02700
H 	H 	0.52970 0.05930 0.90890 -0.02700
H 	H 	0.42250 0.05270 0.85730 0.15800
H 	H 	0.14580 0.09140 0.72270 0.02900
H 	H 	0.17030 0.02970 0.77010 0.02800
H 	H 	0.34920 0.94780 0.65800 0.17000
H 	H 	0.32580 0.84840 0.60610 -0.03700
H 	H 	0.08450 0.86530 0.65600 -0.02700
H 	H 	0.10800 0.97140 0.70730 0.14300
H 	H 	0.11010 0.20870 0.78310 0.02300
H 	H 	0.17710 0.23430 0.81690 0.02500
H 	H 	0.04030 0.27370 0.84920 0.16000
H 	H 	0.91300 0.29300 0.89810 -0.03500
H 	H 	0.92760 0.05300 0.94800 -0.03400
H 	H 	0.05630 0.03130 0.90190 0.17400
H 	H 	0.97170 0.60730 0.48380 -0.00400
H 	H 	0.83000 0.61060 0.48210 0.10600
H 	H 	0.80420 0.79660 0.57400 0.10500
H 	H 	0.94940 0.79120 0.57130 -0.00600
H 	H 	0.67900 0.75240 0.54430 0.06900
H 	H 	0.70100 0.62180 0.48610 0.05800
H 	H 	0.55370 0.77810 0.53230 0.08400
H 	H 	0.40850 0.78790 0.53100 0.00600
H 	H 	0.42560 0.56200 0.47540 0.00000
H 	H 	0.57070 0.55230 0.47670 0.09200
C 	C 	0.80420 0.45040 0.42250 0.46600
C 	C 	0.80370 0.53090 0.38940 -0.29000
C 	C 	0.72820 0.57660 0.38020 0.24800
C 	C 	0.72760 0.65180 0.35130 -0.36000
C 	C 	0.80240 0.68420 0.33210 0.35900
C 	C 	0.87570 0.64050 0.34280 -0.36800
C 	C 	0.87680 0.56460 0.37180 0.25700
C 	C 	0.74060 0.79020 0.27650 0.05700
C 	C 	0.77150 0.85410 0.23280 -0.02300
C 	C 	0.69410 0.88570 0.20150 0.06200
C 	C 	0.60220 0.82280 0.15500 0.33500
C 	C 	0.57510 0.74630 0.14620 -0.31900
C 	C 	0.51070 0.74390 0.11530 0.21900
C 	C 	0.47410 0.81530 0.09330 -0.25700
C 	C 	0.49800 0.89100 0.10460 0.21900
C 	C 	0.56230 0.89550 0.13550 -0.33800
C 	C 	0.40880 0.81080 0.05620 0.45800
C 	C 	0.80860 0.93020 0.25680 0.06700
C 	C 	0.76700 0.03140 0.31420 0.33900
C 	C 	0.70500 0.06780 0.34260 -0.36300
C 	C 	0.71870 0.12830 0.37300 0.23900
C 	C 	0.79840 0.15540 0.37300 -0.26600
C 	C 	0.86140 0.11820 0.34400 0.21300
C 	C 	0.84790 0.05410 0.31300 -0.32000
C 	C 	0.81220 0.21800 0.40790 0.44200
C 	C 	0.84290 0.81270 0.19740 0.07200
C 	C 	0.94260 0.84980 0.13060 0.35600
C 	C 	0.98250 0.77150 0.13130 -0.36400
C 	C 	0.05870 0.76050 0.10180 0.24000
C 	C 	0.09360 0.82580 0.07250 -0.28300
C 	C 	0.05000 0.90200 0.07200 0.24600
C 	C 	0.97350 0.91590 0.09990 -0.35500
C 	C 	0.17680 0.81520 0.04250 0.46400
C 	C 	0.06280 0.35360 0.49820 0.11700
C 	C 	0.14760 0.35220 0.49920 -0.19400
C 	C 	0.19970 0.29590 0.47280 0.15100
C 	C 	0.16240 0.24180 0.44510 -0.18400
C 	C 	0.07510 0.24570 0.44640 0.11500
C 	C 	0.29000 0.28960 0.47310 -0.10900
C 	C 	0.33090 0.33770 0.49560 -0.06400
C 	C 	0.42340 0.33580 0.49540 0.10600
C 	C 	0.47200 0.26520 0.47910 -0.14900
C 	C 	0.55890 0.25930 0.47990 0.07600
C 	C 	0.54880 0.39460 0.51320 0.07700
C 	C 	0.46176 0.40056 0.51246 -0.15600
C 	C 	0.45040 0.80420 0.92250 0.46600
C 	C 	0.53090 0.80370 0.88940 -0.29000
C 	C 	0.57660 0.72820 0.88020 0.24800
C 	C 	0.65180 0.72760 0.85130 -0.36000
C 	C 	0.68420 0.80240 0.83210 0.35900
C 	C 	0.64050 0.87570 0.84280 -0.36900
C 	C 	0.56460 0.87680 0.87180 0.25700
C 	C 	0.79020 0.74060 0.77650 0.05700
C 	C 	0.85410 0.77150 0.73280 -0.02400
C 	C 	0.88570 0.69410 0.70150 0.06200
C 	C 	0.82280 0.60220 0.65500 0.33500
C 	C 	0.74630 0.57510 0.64620 -0.32000
C 	C 	0.74390 0.51070 0.61530 0.22000
C 	C 	0.81530 0.47410 0.59330 -0.25800
C 	C 	0.89100 0.49800 0.60460 0.21900
C 	C 	0.89550 0.56230 0.63550 -0.33900
C 	C 	0.81080 0.40880 0.55620 0.45800
C 	C 	0.93020 0.80860 0.75680 0.06700
C 	C 	0.03140 0.76700 0.81420 0.34000
C 	C 	0.06780 0.70500 0.84260 -0.36400
C 	C 	0.12830 0.71870 0.87300 0.24000
C 	C 	0.15540 0.79840 0.87300 -0.26700
C 	C 	0.11820 0.86140 0.84400 0.21400
C 	C 	0.05410 0.84790 0.81300 -0.32100
C 	C 	0.21800 0.81220 0.90790 0.44300
C 	C 	0.81270 0.84290 0.69740 0.07200
C 	C 	0.84980 0.94260 0.63060 0.35500
C 	C 	0.77150 0.98250 0.63130 -0.36200
C 	C 	0.76050 0.05870 0.60180 0.23900
C 	C 	0.82580 0.09360 0.57250 -0.28200
C 	C 	0.90200 0.05000 0.57200 0.24400
C 	C 	0.91590 0.97350 0.59990 -0.35300
C 	C 	0.81520 0.17680 0.54250 0.46400
C 	C 	0.35360 0.06280 0.99820 0.12200
C 	C 	0.35220 0.14760 0.99920 -0.19300
C 	C 	0.29590 0.19970 0.97280 0.15100
C 	C 	0.24180 0.16240 0.94510 -0.18500
C 	C 	0.24570 0.07510 0.94640 0.11600
C 	C 	0.28960 0.29000 0.97310 -0.11000
C 	C 	0.33770 0.33090 0.99560 -0.06200
C 	C 	0.33580 0.42340 0.99540 0.10500
C 	C 	0.26520 0.47200 0.97910 -0.14800
C 	C 	0.25930 0.55890 0.97990 0.07600
C 	C 	0.39460 0.54880 0.01320 0.07800
C 	C 	0.40056 0.46176 0.01246 -0.15500
C 	C 	0.54960 0.19580 0.07750 0.46600
C 	C 	0.46910 0.19630 0.11060 -0.29000
C 	C 	0.42340 0.27180 0.11980 0.24800
C 	C 	0.34820 0.27240 0.14870 -0.36000
C 	C 	0.31580 0.19760 0.16790 0.35900
C 	C 	0.35950 0.12430 0.15720 -0.36900
C 	C 	0.43540 0.12320 0.12820 0.25700
C 	C 	0.20980 0.25940 0.22350 0.05700
C 	C 	0.14590 0.22850 0.26720 -0.02400
C 	C 	0.11430 0.30590 0.29850 0.06200
C 	C 	0.17720 0.39780 0.34500 0.33500
C 	C 	0.25370 0.42490 0.35380 -0.32000
C 	C 	0.25610 0.48930 0.38470 0.22000
C 	C 	0.18470 0.52590 0.40670 -0.25800
C 	C 	0.10900 0.50200 0.39540 0.21900
C 	C 	0.10450 0.43770 0.36450 -0.33900
C 	C 	0.18920 0.59120 0.44380 0.45800
C 	C 	0.06980 0.19140 0.24320 0.06700
C 	C 	0.96860 0.23300 0.18580 0.34000
C 	C 	0.93220 0.29500 0.15740 -0.36400
C 	C 	0.87170 0.28130 0.12700 0.24000
C 	C 	0.84460 0.20160 0.12700 -0.26700
C 	C 	0.88180 0.13860 0.15600 0.21400
C 	C 	0.94590 0.15210 0.18700 -0.32100
C 	C 	0.78200 0.18780 0.09210 0.44300
C 	C 	0.18730 0.15710 0.30260 0.07200
C 	C 	0.15020 0.05740 0.36940 0.35500
C 	C 	0.22850 0.01750 0.36870 -0.36200
C 	C 	0.23950 0.94130 0.39820 0.23900
C 	C 	0.17420 0.90640 0.42750 -0.28200
C 	C 	0.09800 0.95000 0.42800 0.24400
C 	C 	0.08410 0.02650 0.40010 -0.35300
C 	C 	0.18480 0.82320 0.45750 0.46400
C 	C 	0.64640 0.93720 0.00180 0.12200
C 	C 	0.64780 0.85240 0.00080 -0.19300
C 	C 	0.70410 0.80030 0.02720 0.15100
C 	C 	0.75820 0.83760 0.05490 -0.18500
C 	C 	0.75430 0.92490 0.05360 0.11600
C 	C 	0.71040 0.71000 0.02690 -0.11000
C 	C 	0.66230 0.66910 0.00440 -0.06200
C 	C 	0.66420 0.57660 0.00460 0.10500
C 	C 	0.73480 0.52800 0.02090 -0.14800
C 	C 	0.74070 0.44110 0.02010 0.07600
C 	C 	0.60540 0.45120 0.98680 0.07800
C 	C 	0.59944 0.53824 0.98754 -0.15500
C 	C 	0.19580 0.54960 0.57750 0.46600
C 	C 	0.19630 0.46910 0.61060 -0.29000
C 	C 	0.27180 0.42340 0.61980 0.24800
C 	C 	0.27240 0.34820 0.64870 -0.36000
C 	C 	0.19760 0.31580 0.66790 0.35900
C 	C 	0.12430 0.35950 0.65720 -0.36800
C 	C 	0.12320 0.43540 0.62820 0.25700
C 	C 	0.25940 0.20980 0.72350 0.05700
C 	C 	0.22850 0.14590 0.76720 -0.02300
C 	C 	0.30590 0.11430 0.79850 0.06200
C 	C 	0.39780 0.17720 0.84500 0.33500
C 	C 	0.42490 0.25370 0.85380 -0.31900
C 	C 	0.48930 0.25610 0.88470 0.21900
C 	C 	0.52590 0.18470 0.90670 -0.25700
C 	C 	0.50200 0.10900 0.89540 0.21900
C 	C 	0.43770 0.10450 0.86450 -0.33800
C 	C 	0.59120 0.18920 0.94380 0.45800
C 	C 	0.19140 0.06980 0.74320 0.06700
C 	C 	0.23300 0.96860 0.68580 0.33900
C 	C 	0.29500 0.93220 0.65740 -0.36300
C 	C 	0.28130 0.87170 0.62700 0.23900
C 	C 	0.20160 0.84460 0.62700 -0.26600
C 	C 	0.13860 0.88180 0.65600 0.21300
C 	C 	0.15210 0.94590 0.68700 -0.32000
C 	C 	0.18780 0.78200 0.59210 0.44200
C 	C 	0.15710 0.18730 0.80260 0.07200
C 	C 	0.05740 0.15020 0.86940 0.35600
C 	C 	0.01750 0.22850 0.86870 -0.36400
C 	C 	0.94130 0.23950 0.89820 0.24000
C 	C 	0.90640 0.17420 0.92750 -0.28300
C 	C 	0.95000 0.09800 0.92800 0.24600
C 	C 	0.02650 0.08410 0.90010 -0.35500
C 	C 	0.82320 0.18480 0.95750 0.46400
C 	C 	0.93720 0.64640 0.50180 0.11700
C 	C 	0.85240 0.64780 0.50080 -0.19400
C 	C 	0.80030 0.70410 0.52720 0.15100
C 	C 	0.83760 0.75820 0.55490 -0.18400
C 	C 	0.92490 0.75430 0.55360 0.11500
C 	C 	0.71000 0.71040 0.52690 -0.10900
C 	C 	0.66910 0.66230 0.50440 -0.06400
C 	C 	0.57660 0.66420 0.50460 0.10600
C 	C 	0.52800 0.73480 0.52090 -0.14900
C 	C 	0.44110 0.74070 0.52010 0.07600
C 	C 	0.45120 0.60540 0.48680 0.07700
C 	C 	0.53824 0.59944 0.48754 -0.15600
N 	N 	0.59728 0.32408 0.49691 -0.24700
N 	N 	0.02683 0.30095 0.47222 -0.26400
N 	N 	0.32408 0.59728 0.99691 -0.24700
N 	N 	0.30095 0.02683 0.97222 -0.26400
N 	N 	0.67592 0.40272 0.00309 -0.24700
N 	N 	0.69905 0.97317 0.02778 -0.26400
N 	N 	0.40272 0.67592 0.50309 -0.24700
N 	N 	0.97317 0.69905 0.52778 -0.26400
O 	O 	0.73664 0.42584 0.44312 -0.47800
O 	O 	0.87489 0.41129 0.42819 -0.49500
O 	O 	0.80940 0.75900 0.30280 -0.27300
O 	O 	0.66720 0.81480 0.18530 -0.27300
O 	O 	0.38886 0.73990 0.04981 -0.48100
O 	O 	0.37944 0.87756 0.03463 -0.47500
O 	O 	0.74450 0.96730 0.28600 -0.26100
O 	O 	0.88620 0.23600 0.41273 -0.45000
O 	O 	0.74819 0.25139 0.43197 -0.48300
O 	O 	0.86880 0.87040 0.15902 -0.27900
O 	O 	0.21224 0.74264 0.03913 -0.47200
O 	O 	0.20452 0.88038 0.01956 -0.49600
O 	O 	0.42584 0.73664 0.94312 -0.47800
O 	O 	0.41129 0.87489 0.92819 -0.49600
O 	O 	0.75900 0.80940 0.80280 -0.27400
O 	O 	0.81480 0.66720 0.68530 -0.27300
O 	O 	0.73990 0.38886 0.54981 -0.48200
O 	O 	0.87756 0.37944 0.53463 -0.47700
O 	O 	0.96730 0.74450 0.78600 -0.26200
O 	O 	0.23600 0.88620 0.91273 -0.45200
O 	O 	0.25139 0.74819 0.93197 -0.48400
O 	O 	0.87040 0.86880 0.65902 -0.27900
O 	O 	0.74264 0.21224 0.53913 -0.47300
O 	O 	0.88038 0.20452 0.51956 -0.49700
O 	O 	0.57416 0.26336 0.05688 -0.47800
O 	O 	0.58871 0.12511 0.07181 -0.49600
O 	O 	0.24100 0.19060 0.19720 -0.27400
O 	O 	0.18520 0.33280 0.31470 -0.27300
O 	O 	0.26010 0.61114 0.45019 -0.48200
O 	O 	0.12244 0.62056 0.46537 -0.47700
O 	O 	0.03270 0.25550 0.21400 -0.26200
O 	O 	0.76400 0.11380 0.08727 -0.45200
O 	O 	0.74861 0.25181 0.06803 -0.48400
O 	O 	0.12960 0.13120 0.34098 -0.27900
O 	O 	0.25736 0.78776 0.46087 -0.47300
O 	O 	0.11962 0.79548 0.48044 -0.49700
O 	O 	0.26336 0.57416 0.55688 -0.47800
O 	O 	0.12511 0.58871 0.57181 -0.49500
O 	O 	0.19060 0.24100 0.69720 -0.27300
O 	O 	0.33280 0.18520 0.81470 -0.27300
O 	O 	0.61114 0.26010 0.95019 -0.48100
O 	O 	0.62056 0.12244 0.96537 -0.47500
O 	O 	0.25550 0.03270 0.71400 -0.26100
O 	O 	0.11380 0.76400 0.58727 -0.45000
O 	O 	0.25181 0.74861 0.56803 -0.48300
O 	O 	0.13120 0.12960 0.84098 -0.27900
O 	O 	0.78776 0.25736 0.96087 -0.47200
O 	O 	0.79548 0.11962 0.98044 -0.49600
