data_crystal

_cell_length_a 12.12500
_cell_length_b 13.83320
_cell_length_c 21.64360
_cell_angle_alpha 90.00000
_cell_angle_beta  90.00000
_cell_angle_gamma 90.00000

_symmetry_space_group_name_	'P 1'
_symmetry_space_group_name_H-M	'P 1'

loop_
_symmetry_equiv_pos_as_xyz
  x,y,z

loop_
_atom_site_label
_atom_site_type_symbol
_atom_site_fract_x
_atom_site_fract_y
_atom_site_fract_z
_atom_site_charge
Zn	Zn	0.24846 0.92514 0.24406 1.17900
Zn	Zn	0.23379 0.43234 0.12579 1.19000
Zn	Zn	0.24846 0.07486 0.75594 1.17900
Zn	Zn	0.23379 0.56766 0.87421 1.19000
Zn	Zn	0.75154 0.57486 0.74406 1.17900
Zn	Zn	0.76621 0.06766 0.62579 1.19000
Zn	Zn	0.75154 0.42514 0.25594 1.17900
Zn	Zn	0.76621 0.93234 0.37421 1.19000
H 	H 	0.23100 0.71890 0.21080 0.00400
H 	H 	0.94300 0.71820 0.34440 0.07200
H 	H 	0.04120 0.85720 0.32350 -0.02200
H 	H 	0.25150 0.12980 0.19200 0.01100
H 	H 	0.60830 0.11360 0.25500 0.07000
H 	H 	0.49350 0.98560 0.26520 0.02400
H 	H 	0.37150 0.60430 0.08550 0.03300
H 	H 	0.46330 0.53040 0.10510 0.03500
H 	H 	0.60030 0.51850 0.96580 0.03900
H 	H 	0.37220 0.33210 0.01880 0.03400
H 	H 	0.46360 0.36420 0.06600 0.05400
H 	H 	0.23050 0.55330 0.01220 -0.03300
H 	H 	0.23100 0.28110 0.78920 0.00400
H 	H 	0.94300 0.28180 0.65560 0.07200
H 	H 	0.04120 0.14280 0.67650 -0.02200
H 	H 	0.25150 0.87020 0.80800 0.01100
H 	H 	0.60830 0.88640 0.74500 0.07000
H 	H 	0.49350 0.01440 0.73480 0.02400
H 	H 	0.37150 0.39570 0.91450 0.03300
H 	H 	0.46330 0.46960 0.89490 0.03500
H 	H 	0.60030 0.48150 0.03420 0.03900
H 	H 	0.37220 0.66790 0.98120 0.03400
H 	H 	0.46360 0.63580 0.93400 0.05400
H 	H 	0.23050 0.44670 0.98780 -0.03300
H 	H 	0.76900 0.78110 0.71080 0.00400
H 	H 	0.05700 0.78180 0.84440 0.07300
H 	H 	0.95880 0.64280 0.82350 -0.02200
H 	H 	0.74850 0.37020 0.69200 0.01100
H 	H 	0.39170 0.38640 0.75500 0.07000
H 	H 	0.50650 0.51440 0.76520 0.02600
H 	H 	0.62850 0.89570 0.58550 0.03400
H 	H 	0.53670 0.96960 0.60510 0.03600
H 	H 	0.39970 0.98150 0.46580 0.03900
H 	H 	0.62780 0.16790 0.51880 0.03400
H 	H 	0.53640 0.13580 0.56600 0.05400
H 	H 	0.76950 0.94670 0.51220 -0.03200
H 	H 	0.76900 0.21890 0.28920 0.00400
H 	H 	0.05700 0.21820 0.15560 0.07300
H 	H 	0.95880 0.35720 0.17650 -0.02200
H 	H 	0.74850 0.62980 0.30800 0.01100
H 	H 	0.39170 0.61360 0.24500 0.07000
H 	H 	0.50650 0.48560 0.23480 0.02600
H 	H 	0.62850 0.10430 0.41450 0.03400
H 	H 	0.53670 0.03040 0.39490 0.03600
H 	H 	0.39970 0.01850 0.53420 0.03900
H 	H 	0.62780 0.83210 0.48120 0.03400
H 	H 	0.53640 0.86420 0.43400 0.05400
H 	H 	0.76950 0.05330 0.48780 -0.03200
C 	C 	0.17070 0.71880 0.23740 0.06800
C 	C 	0.11370 0.63220 0.24440 -0.09600
C 	C 	0.15030 0.54620 0.20950 0.32100
C 	C 	0.02710 0.63170 0.28620 0.01100
C 	C 	0.04760 0.04340 0.20160 0.33400
C 	C 	0.00080 0.71660 0.31620 -0.10600
C 	C 	0.06140 0.80010 0.30380 0.08200
C 	C 	0.32480 0.12650 0.20460 0.06000
C 	C 	0.39050 0.20920 0.19750 -0.08000
C 	C 	0.33720 0.29840 0.17200 0.31400
C 	C 	0.49910 0.20480 0.21560 -0.00500
C 	C 	0.42150 0.78930 0.29470 0.33100
C 	C 	0.53570 0.11870 0.24140 -0.07600
C 	C 	0.46670 0.04200 0.24720 0.04300
C 	C 	0.41630 0.55070 0.07120 -0.01800
C 	C 	0.41790 0.38590 0.03190 -0.03000
C 	C 	0.17070 0.28120 0.76260 0.06800
C 	C 	0.11370 0.36780 0.75560 -0.09600
C 	C 	0.15030 0.45380 0.79050 0.32100
C 	C 	0.02710 0.36830 0.71380 0.01100
C 	C 	0.04760 0.95660 0.79840 0.33400
C 	C 	0.00080 0.28340 0.68380 -0.10600
C 	C 	0.06140 0.19990 0.69620 0.08200
C 	C 	0.32480 0.87350 0.79540 0.06000
C 	C 	0.39050 0.79080 0.80250 -0.08000
C 	C 	0.33720 0.70160 0.82800 0.31400
C 	C 	0.49910 0.79520 0.78440 -0.00500
C 	C 	0.42150 0.21070 0.70530 0.33100
C 	C 	0.53570 0.88130 0.75860 -0.07600
C 	C 	0.46670 0.95800 0.75280 0.04300
C 	C 	0.41630 0.44930 0.92880 -0.01800
C 	C 	0.41790 0.61410 0.96810 -0.03000
C 	C 	0.82930 0.78120 0.73740 0.06900
C 	C 	0.88630 0.86780 0.74440 -0.09600
C 	C 	0.84970 0.95380 0.70950 0.32200
C 	C 	0.97290 0.86830 0.78620 0.01100
C 	C 	0.95240 0.45660 0.70160 0.33400
C 	C 	0.99920 0.78340 0.81620 -0.10600
C 	C 	0.93860 0.69990 0.80380 0.08200
C 	C 	0.67520 0.37350 0.70460 0.06000
C 	C 	0.60950 0.29080 0.69750 -0.08000
C 	C 	0.66280 0.20160 0.67200 0.31400
C 	C 	0.50090 0.29520 0.71560 -0.00600
C 	C 	0.57850 0.71070 0.79470 0.33000
C 	C 	0.46430 0.38130 0.74140 -0.07400
C 	C 	0.53330 0.45800 0.74720 0.04000
C 	C 	0.58370 0.94930 0.57120 -0.01700
C 	C 	0.58210 0.11410 0.53190 -0.03000
C 	C 	0.82930 0.21880 0.26260 0.06900
C 	C 	0.88630 0.13220 0.25560 -0.09600
C 	C 	0.84970 0.04620 0.29050 0.32200
C 	C 	0.97290 0.13170 0.21380 0.01100
C 	C 	0.95240 0.54340 0.29840 0.33400
C 	C 	0.99920 0.21660 0.18380 -0.10600
C 	C 	0.93860 0.30010 0.19620 0.08200
C 	C 	0.67520 0.62650 0.29540 0.06000
C 	C 	0.60950 0.70920 0.30250 -0.08000
C 	C 	0.66280 0.79840 0.32800 0.31400
C 	C 	0.50090 0.70480 0.28440 -0.00600
C 	C 	0.57850 0.28930 0.20530 0.33000
C 	C 	0.46430 0.61870 0.25860 -0.07400
C 	C 	0.53330 0.54200 0.25280 0.04000
C 	C 	0.58370 0.05070 0.42880 -0.01700
C 	C 	0.58210 0.88590 0.46810 -0.03000
C 	C 	0.55310 0.50000 -0.00000 -0.00100
C 	C 	0.27760 0.50000 -0.00000 0.00100
C 	C 	0.44690 0.00000 0.50000 -0.00100
C 	C 	0.72240 0.00000 0.50000 0.00100
N 	N 	0.36080 0.04410 0.22800 -0.24300
N 	N 	0.14610 0.80160 0.26550 -0.24900
N 	N 	0.34430 0.47020 0.05320 -0.21200
N 	N 	0.48660 0.58340 0.01840 -0.09200
N 	N 	0.36080 0.95590 0.77200 -0.24300
N 	N 	0.14610 0.19840 0.73450 -0.24900
N 	N 	0.34430 0.52980 0.94680 -0.21200
N 	N 	0.48660 0.41660 0.98160 -0.09200
N 	N 	0.63920 0.45590 0.72800 -0.24300
N 	N 	0.85390 0.69840 0.76550 -0.24900
N 	N 	0.65570 0.02980 0.55320 -0.21200
N 	N 	0.51340 0.91660 0.51840 -0.09100
N 	N 	0.63920 0.54410 0.27200 -0.24300
N 	N 	0.85390 0.30160 0.23450 -0.24900
N 	N 	0.65570 0.97020 0.44680 -0.21200
N 	N 	0.51340 0.08340 0.48160 -0.09100
O 	O 	0.21210 0.56350 0.16240 -0.45300
O 	O 	0.12190 0.46420 0.22400 -0.33900
O 	O 	0.11260 0.02180 0.24420 -0.43800
O 	O 	0.03910 0.00640 0.15000 -0.27800
O 	O 	0.25440 0.28840 0.13690 -0.44600
O 	O 	0.37190 0.37990 0.18690 -0.37300
O 	O 	0.38300 0.82800 0.24661 -0.43200
O 	O 	0.40010 0.80930 0.34890 -0.29100
O 	O 	0.21210 0.43650 0.83760 -0.45300
O 	O 	0.12190 0.53580 0.77600 -0.33900
O 	O 	0.11260 0.97820 0.75580 -0.43800
O 	O 	0.03910 0.99360 0.85000 -0.27800
O 	O 	0.25440 0.71160 0.86310 -0.44600
O 	O 	0.37190 0.62010 0.81310 -0.37300
O 	O 	0.38300 0.17200 0.75339 -0.43200
O 	O 	0.40010 0.19070 0.65110 -0.29100
O 	O 	0.78790 0.93650 0.66240 -0.45200
O 	O 	0.87810 0.03580 0.72400 -0.34000
O 	O 	0.88740 0.47820 0.74420 -0.43800
O 	O 	0.96090 0.49360 0.65000 -0.27900
O 	O 	0.74560 0.21160 0.63690 -0.44600
O 	O 	0.62810 0.12010 0.68690 -0.37300
O 	O 	0.61700 0.67200 0.74661 -0.43200
O 	O 	0.59990 0.69070 0.84890 -0.29100
O 	O 	0.78790 0.06350 0.33760 -0.45200
O 	O 	0.87810 0.96420 0.27600 -0.34000
O 	O 	0.88740 0.52180 0.25580 -0.43800
O 	O 	0.96090 0.50640 0.35000 -0.27900
O 	O 	0.74560 0.78840 0.36310 -0.44600
O 	O 	0.62810 0.87990 0.31310 -0.37300
O 	O 	0.61700 0.32800 0.25339 -0.43200
O 	O 	0.59990 0.30930 0.15110 -0.29100
