data_crystal

_cell_length_a 10.48680
_cell_length_b 17.77860
_cell_length_c 17.77860
_cell_angle_alpha 120.00000
_cell_angle_beta  90.00000
_cell_angle_gamma 90.00000

_symmetry_space_group_name_	'P 1'
_symmetry_space_group_name_H-M	'P 1'

loop_
_symmetry_equiv_pos_as_xyz
  x,y,z

loop_
_atom_site_label
_atom_site_type_symbol
_atom_site_fract_x
_atom_site_fract_y
_atom_site_fract_z
_atom_site_charge
Zn	Zn	0.92276 0.92957 0.47219 1.20300
Zn	Zn	0.25609 0.54262 0.07043 1.20700
Zn	Zn	0.58943 0.52781 0.45738 1.20600
Zn	Zn	0.42276 0.07043 0.52781 1.20600
Zn	Zn	0.75609 0.45738 0.92957 1.20600
Zn	Zn	0.08943 0.47219 0.54262 1.20900
H 	H 	0.83100 0.07960 0.55370 0.06900
H 	H 	0.63630 0.30200 0.77890 -0.01500
H 	H 	0.95730 0.32360 0.89660 -0.05200
H 	H 	0.01220 0.18200 0.79460 0.10900
H 	H 	0.67990 0.16360 0.67730 0.11900
H 	H 	0.96270 0.04800 0.66880 0.07500
H 	H 	0.81750 0.02690 0.64860 0.07900
H 	H 	0.03540 0.15330 0.62560 0.17600
H 	H 	0.06230 0.19630 0.52170 -0.23300
H 	H 	0.86490 0.08040 0.42670 0.47100
H 	H 	0.00770 0.07010 0.39700 0.49900
H 	H 	0.92540 0.14660 0.40310 0.49400
H 	H 	0.87350 0.27400 0.54710 0.46800
H 	H 	0.92180 0.27800 0.63250 0.45300
H 	H 	0.80880 0.21620 0.57990 0.45800
H 	H 	0.16433 0.47410 0.92040 0.06800
H 	H 	0.96963 0.47690 0.69800 -0.03500
H 	H 	0.29063 0.57300 0.67640 -0.04500
H 	H 	0.34553 0.61260 0.81800 0.09400
H 	H 	0.01323 0.51370 0.83640 0.12900
H 	H 	0.29603 0.62080 0.95200 0.08000
H 	H 	0.15083 0.62170 0.97310 0.08200
H 	H 	0.36873 0.47230 0.84670 0.18200
H 	H 	0.39563 0.32540 0.80370 -0.25500
H 	H 	0.19823 0.34630 0.91960 0.47700
H 	H 	0.34103 0.32690 0.92990 0.49400
H 	H 	0.25873 0.25650 0.85340 0.50100
H 	H 	0.20683 0.27310 0.72600 0.48900
H 	H 	0.25513 0.35450 0.72200 0.47500
H 	H 	0.14213 0.36370 0.78380 0.47800
H 	H 	0.49767 0.44630 0.52590 0.06700
H 	H 	0.30297 0.22110 0.52310 -0.01400
H 	H 	0.62397 0.10340 0.42700 -0.04300
H 	H 	0.67887 0.20540 0.38740 0.08900
H 	H 	0.34657 0.32270 0.48630 0.11500
H 	H 	0.62937 0.33120 0.37920 0.07700
H 	H 	0.48417 0.35140 0.37830 0.07800
H 	H 	0.70207 0.37440 0.52770 0.18100
H 	H 	0.72897 0.47830 0.67460 -0.25300
H 	H 	0.53157 0.57330 0.65370 0.47100
H 	H 	0.67437 0.60300 0.67310 0.49000
H 	H 	0.59207 0.59690 0.74350 0.49600
H 	H 	0.54017 0.45290 0.72690 0.48400
H 	H 	0.58847 0.36750 0.64550 0.47100
H 	H 	0.47547 0.42010 0.63630 0.47200
H 	H 	0.33100 0.92040 0.44630 0.06700
H 	H 	0.13630 0.69800 0.22110 -0.01000
H 	H 	0.45730 0.67640 0.10340 -0.04300
H 	H 	0.51220 0.81800 0.20540 0.09000
H 	H 	0.17990 0.83640 0.32270 0.11900
H 	H 	0.46270 0.95200 0.33120 0.07800
H 	H 	0.31750 0.97310 0.35140 0.07900
H 	H 	0.53540 0.84670 0.37440 0.18100
H 	H 	0.56230 0.80370 0.47830 -0.25300
H 	H 	0.36490 0.91960 0.57330 0.47300
H 	H 	0.50770 0.92990 0.60300 0.49100
H 	H 	0.42540 0.85340 0.59690 0.49800
H 	H 	0.37350 0.72600 0.45290 0.48500
H 	H 	0.42180 0.72200 0.36750 0.47200
H 	H 	0.30880 0.78380 0.42010 0.47400
H 	H 	0.66433 0.52590 0.07960 0.06800
H 	H 	0.46963 0.52310 0.30200 -0.01300
H 	H 	0.79063 0.42700 0.32360 -0.04500
H 	H 	0.84553 0.38740 0.18200 0.08700
H 	H 	0.51323 0.48630 0.16360 0.11500
H 	H 	0.79603 0.37920 0.04800 0.07600
H 	H 	0.65083 0.37830 0.02690 0.07700
H 	H 	0.86873 0.52770 0.15330 0.17700
H 	H 	0.89563 0.67460 0.19630 -0.25400
H 	H 	0.69823 0.65370 0.08040 0.46800
H 	H 	0.84103 0.67310 0.07010 0.48500
H 	H 	0.75873 0.74350 0.14660 0.49300
H 	H 	0.70683 0.72690 0.27400 0.48100
H 	H 	0.75513 0.64550 0.27800 0.46800
H 	H 	0.64213 0.63630 0.21620 0.47000
H 	H 	0.99767 0.55370 0.47410 0.05600
H 	H 	0.80297 0.77890 0.47690 -0.01900
H 	H 	0.12397 0.89660 0.57300 -0.05100
H 	H 	0.17887 0.79460 0.61260 0.09800
H 	H 	0.84657 0.67730 0.51370 0.12700
H 	H 	0.12937 0.66880 0.62080 0.07400
H 	H 	0.98417 0.64860 0.62170 0.06200
H 	H 	0.20207 0.62560 0.47230 0.17700
H 	H 	0.22897 0.52170 0.32540 -0.24200
H 	H 	0.03157 0.42670 0.34630 0.46700
H 	H 	0.17437 0.39700 0.32690 0.48200
H 	H 	0.09207 0.40310 0.25650 0.49100
H 	H 	0.04017 0.54710 0.27310 0.46200
H 	H 	0.08847 0.63250 0.35450 0.44700
H 	H 	0.97547 0.57990 0.36370 0.43500
C 	C 	0.71380 0.27790 0.78150 0.12100
C 	C 	0.90200 0.29120 0.85070 0.12500
C 	C 	0.93510 0.20540 0.79010 -0.27400
C 	C 	0.85160 0.15670 0.72410 0.19700
C 	C 	0.73880 0.19510 0.72110 -0.25500
C 	C 	0.88490 0.06630 0.65310 -0.22900
C 	C 	0.12880 0.05270 0.52180 0.47000
C 	C 	0.01240 0.11300 0.56490 -0.49200
C 	C 	0.98230 0.16830 0.52270 0.94100
C 	C 	0.94130 0.11110 0.42870 -1.53400
C 	C 	0.88790 0.24080 0.57540 -1.47200
C 	C 	0.04713 0.50360 0.72210 0.15300
C 	C 	0.23533 0.55950 0.70880 0.11800
C 	C 	0.26843 0.58470 0.79460 -0.25200
C 	C 	0.18493 0.56740 0.84330 0.19800
C 	C 	0.07213 0.52600 0.80490 -0.27000
C 	C 	0.21823 0.58680 0.93370 -0.23100
C 	C 	0.46213 0.46910 0.94730 0.48000
C 	C 	0.34573 0.45190 0.88700 -0.52700
C 	C 	0.31563 0.35440 0.83170 0.99500
C 	C 	0.27463 0.31760 0.88890 -1.54400
C 	C 	0.22123 0.33460 0.75920 -1.53100
C 	C 	0.38047 0.21850 0.49640 0.11600
C 	C 	0.56867 0.14930 0.44050 0.11100
C 	C 	0.60177 0.20990 0.41530 -0.24200
C 	C 	0.51827 0.27590 0.43260 0.18400
C 	C 	0.40547 0.27890 0.47400 -0.24500
C 	C 	0.55157 0.34690 0.41320 -0.22200
C 	C 	0.79547 0.47820 0.53090 0.48100
C 	C 	0.67907 0.43510 0.54810 -0.52400
C 	C 	0.64897 0.47730 0.64560 0.98600
C 	C 	0.60797 0.57130 0.68240 -1.53200
C 	C 	0.55457 0.42460 0.66540 -1.51800
C 	C 	0.21380 0.72210 0.21850 0.11700
C 	C 	0.40200 0.70880 0.14930 0.11200
C 	C 	0.43510 0.79460 0.20990 -0.24200
C 	C 	0.35160 0.84330 0.27590 0.18600
C 	C 	0.23880 0.80490 0.27890 -0.24500
C 	C 	0.38490 0.93370 0.34690 -0.22400
C 	C 	0.62880 0.94730 0.47820 0.48000
C 	C 	0.51240 0.88700 0.43510 -0.52400
C 	C 	0.48230 0.83170 0.47730 0.98800
C 	C 	0.44130 0.88890 0.57130 -1.53500
C 	C 	0.38790 0.75920 0.42460 -1.52100
C 	C 	0.54713 0.49640 0.27790 0.11500
C 	C 	0.73533 0.44050 0.29120 0.11100
C 	C 	0.76843 0.41530 0.20540 -0.24200
C 	C 	0.68493 0.43260 0.15670 0.18300
C 	C 	0.57213 0.47400 0.19510 -0.24500
C 	C 	0.71823 0.41320 0.06630 -0.22100
C 	C 	0.96213 0.53090 0.05270 0.45800
C 	C 	0.84573 0.54810 0.11300 -0.51600
C 	C 	0.81563 0.64560 0.16830 0.97900
C 	C 	0.77463 0.68240 0.11110 -1.52300
C 	C 	0.72123 0.66540 0.24080 -1.51000
C 	C 	0.88047 0.78150 0.50360 0.13200
C 	C 	0.06867 0.85070 0.55950 0.14200
C 	C 	0.10177 0.79010 0.58470 -0.26400
C 	C 	0.01827 0.72410 0.56740 0.21300
C 	C 	0.90547 0.72110 0.52600 -0.28100
C 	C 	0.05157 0.65310 0.58680 -0.20700
C 	C 	0.29547 0.52180 0.46910 0.47700
C 	C 	0.17907 0.56490 0.45190 -0.50900
C 	C 	0.14897 0.52270 0.35440 0.95000
C 	C 	0.10797 0.42870 0.31760 -1.50100
C 	C 	0.05457 0.57540 0.33460 -1.42800
Br	Br	0.91231 0.86874 0.32053 -0.55100
Br	Br	0.24564 0.45179 0.13126 -0.53400
Br	Br	0.57898 0.67947 0.54821 -0.54000
Br	Br	0.41231 0.13126 0.67947 -0.53900
Br	Br	0.74564 0.54821 0.86874 -0.54400
Br	Br	0.07898 0.32053 0.45179 -0.52900
N 	N 	0.79620 0.32750 0.84530 -0.28400
N 	N 	0.90310 0.05940 0.56600 -0.19000
N 	N 	0.12953 0.51780 0.67250 -0.28500
N 	N 	0.23643 0.50660 0.94060 -0.18200
N 	N 	0.46287 0.15470 0.48220 -0.28000
N 	N 	0.56977 0.43400 0.49340 -0.18300
N 	N 	0.29620 0.67250 0.15470 -0.28000
N 	N 	0.40310 0.94060 0.43400 -0.18200
N 	N 	0.62953 0.48220 0.32750 -0.28000
N 	N 	0.73643 0.49340 0.05940 -0.18400
N 	N 	0.96287 0.84530 0.51780 -0.29700
N 	N 	0.06977 0.56600 0.50660 -0.17600
O 	O 	0.11800 0.97370 0.48880 -0.49000
O 	O 	0.22800 0.09210 0.52200 -0.48000
O 	O 	0.45133 0.51510 0.02630 -0.49900
O 	O 	0.56133 0.42990 0.90790 -0.48300
O 	O 	0.78467 0.51120 0.48490 -0.50200
O 	O 	0.89467 0.47800 0.57010 -0.48800
O 	O 	0.61800 0.02630 0.51120 -0.49900
O 	O 	0.72800 0.90790 0.47800 -0.48300
O 	O 	0.95133 0.48490 0.97370 -0.49900
O 	O 	0.06133 0.57010 0.09210 -0.46500
O 	O 	0.28467 0.48880 0.51510 -0.49900
O 	O 	0.39467 0.52200 0.42990 -0.48200
