data_crystal

_cell_length_a 10.56170
_cell_length_b 17.69100
_cell_length_c 17.69100
_cell_angle_alpha 120.00000
_cell_angle_beta  90.00000
_cell_angle_gamma 90.00000

_symmetry_space_group_name_	'P 1'
_symmetry_space_group_name_H-M	'P 1'

loop_
_symmetry_equiv_pos_as_xyz
  x,y,z

loop_
_atom_site_label
_atom_site_type_symbol
_atom_site_fract_x
_atom_site_fract_y
_atom_site_fract_z
_atom_site_charge
Zn	Zn	0.88236 0.54039 0.07100 1.20900
Zn	Zn	0.54903 0.53061 0.45961 1.21500
Zn	Zn	0.21569 0.92900 0.46939 1.21500
Zn	Zn	0.38236 0.45961 0.92900 1.21400
Zn	Zn	0.04903 0.46939 0.54039 1.22100
Zn	Zn	0.71569 0.07100 0.53061 1.21400
H 	H 	0.97400 0.46890 0.91880 0.05900
H 	H 	0.16740 0.46790 0.69220 0.01400
H 	H 	0.84970 0.57250 0.67730 -0.01300
H 	H 	0.79950 0.61450 0.81860 0.05600
H 	H 	0.12610 0.50720 0.83450 0.08300
H 	H 	0.99080 0.61710 0.97350 0.04400
H 	H 	0.84660 0.61840 0.95350 0.05500
H 	H 	0.77310 0.47060 0.84560 0.17700
H 	H 	0.73980 0.32440 0.80540 -0.22700
H 	H 	0.88450 0.25420 0.85110 0.46400
H 	H 	0.79240 0.31760 0.92540 0.47100
H 	H 	0.93230 0.34620 0.92340 0.43900
H 	H 	0.99720 0.35240 0.78340 0.41000
H 	H 	0.88790 0.35390 0.72410 0.41900
H 	H 	0.92100 0.26700 0.72310 0.43200
H 	H 	0.64067 0.44990 0.53110 0.06600
H 	H 	0.83407 0.22430 0.53210 -0.01100
H 	H 	0.51637 0.10480 0.42750 -0.03800
H 	H 	0.46617 0.20410 0.38550 0.08700
H 	H 	0.79277 0.32730 0.49280 0.10600
H 	H 	0.65747 0.35640 0.38290 0.07600
H 	H 	0.51327 0.33510 0.38160 0.07500
H 	H 	0.43977 0.37500 0.52940 0.18500
H 	H 	0.40647 0.48100 0.67560 -0.24700
H 	H 	0.55117 0.59690 0.74580 0.49800
H 	H 	0.45907 0.60780 0.68240 0.50000
H 	H 	0.59897 0.57720 0.65380 0.47300
H 	H 	0.66387 0.43100 0.64760 0.45400
H 	H 	0.55457 0.37020 0.64610 0.45500
H 	H 	0.58767 0.45610 0.73300 0.47100
H 	H 	0.30733 0.08120 0.55010 0.06600
H 	H 	0.50073 0.30780 0.77570 -0.00600
H 	H 	0.18303 0.32270 0.89520 -0.02800
H 	H 	0.13283 0.18140 0.79590 0.09800
H 	H 	0.45943 0.16550 0.67270 0.11400
H 	H 	0.32413 0.02650 0.64360 0.07700
H 	H 	0.17993 0.04650 0.66490 0.07900
H 	H 	0.10643 0.15440 0.62500 0.20200
H 	H 	0.07313 0.19460 0.51900 -0.24500
H 	H 	0.21783 0.14890 0.40310 0.51400
H 	H 	0.12573 0.07460 0.39220 0.52000
H 	H 	0.26563 0.07660 0.42280 0.48700
H 	H 	0.33053 0.21660 0.56900 0.46600
H 	H 	0.22123 0.27590 0.62980 0.47000
H 	H 	0.25433 0.27690 0.54390 0.48300
H 	H 	0.47400 0.53110 0.08120 0.06600
H 	H 	0.66740 0.53210 0.30780 -0.01000
H 	H 	0.34970 0.42750 0.32270 -0.03000
H 	H 	0.29950 0.38550 0.18140 0.09700
H 	H 	0.62610 0.49280 0.16550 0.11400
H 	H 	0.49080 0.38290 0.02650 0.07600
H 	H 	0.34660 0.38160 0.04650 0.07800
H 	H 	0.27310 0.52940 0.15440 0.19200
H 	H 	0.23980 0.67560 0.19460 -0.24700
H 	H 	0.38450 0.74580 0.14890 0.50600
H 	H 	0.29240 0.68240 0.07460 0.51100
H 	H 	0.43230 0.65380 0.07660 0.48100
H 	H 	0.49720 0.64760 0.21660 0.46100
H 	H 	0.38790 0.64610 0.27590 0.46300
H 	H 	0.42100 0.73300 0.27690 0.47700
H 	H 	0.14067 0.55010 0.46890 0.08500
H 	H 	0.33407 0.77570 0.46790 0.00300
H 	H 	0.01637 0.89520 0.57250 0.00000
H 	H 	0.96617 0.79590 0.61450 0.00500
H 	H 	0.29277 0.67270 0.50720 0.10200
H 	H 	0.15747 0.64360 0.61710 0.06700
H 	H 	0.01327 0.66490 0.61840 0.08000
H 	H 	0.93977 0.62500 0.47060 0.13100
H 	H 	0.90647 0.51900 0.32440 -0.11500
H 	H 	0.05117 0.40310 0.25420 0.30300
H 	H 	0.95907 0.39220 0.31760 0.25900
H 	H 	0.09897 0.42280 0.34620 0.27300
H 	H 	0.16387 0.56900 0.35240 0.31100
H 	H 	0.05457 0.62980 0.35390 0.32200
H 	H 	0.08767 0.54390 0.26700 0.33200
H 	H 	0.80733 0.91880 0.44990 0.06100
H 	H 	0.00073 0.69220 0.22430 0.07200
H 	H 	0.68303 0.67730 0.10480 -0.03200
H 	H 	0.63283 0.81860 0.20410 0.07500
H 	H 	0.95943 0.83450 0.32730 0.07100
H 	H 	0.82413 0.97350 0.35640 0.06000
H 	H 	0.67993 0.95350 0.33510 0.06600
H 	H 	0.60643 0.84560 0.37500 0.18200
H 	H 	0.57313 0.80540 0.48100 -0.23900
H 	H 	0.71783 0.85110 0.59690 0.48300
H 	H 	0.62573 0.92540 0.60780 0.48700
H 	H 	0.76563 0.92340 0.57720 0.45500
H 	H 	0.83053 0.78340 0.43100 0.43800
H 	H 	0.72123 0.72410 0.37020 0.44300
H 	H 	0.75433 0.72310 0.45610 0.45800
C 	C 	0.09250 0.49710 0.71780 0.04900
C 	C 	0.90540 0.55870 0.70930 0.00800
C 	C 	0.87430 0.58420 0.79430 -0.14600
C 	C 	0.95540 0.56440 0.84350 0.05600
C 	C 	0.06800 0.52050 0.80340 -0.09300
C 	C 	0.92300 0.58330 0.93420 -0.15500
C 	C 	0.67690 0.46810 0.94590 0.46800
C 	C 	0.79380 0.45051 0.88661 -0.50400
C 	C 	0.82000 0.35260 0.83300 0.91000
C 	C 	0.86100 0.31420 0.88830 -1.45400
C 	C 	0.91550 0.32930 0.75900 -1.36300
C 	C 	0.75917 0.22070 0.50290 0.09300
C 	C 	0.57207 0.15060 0.44130 0.10200
C 	C 	0.54097 0.21010 0.41580 -0.22900
C 	C 	0.62207 0.27910 0.43560 0.16400
C 	C 	0.73467 0.28290 0.47950 -0.21600
C 	C 	0.58967 0.35090 0.41670 -0.21300
C 	C 	0.34357 0.47780 0.53190 0.47300
C 	C 	0.46047 0.43610 0.54949 -0.52800
C 	C 	0.48667 0.48040 0.64740 0.97500
C 	C 	0.52767 0.57410 0.68580 -1.54200
C 	C 	0.58217 0.42970 0.67070 -1.45900
C 	C 	0.42583 0.28220 0.77930 0.09800
C 	C 	0.23873 0.29070 0.84940 0.10800
C 	C 	0.20763 0.20570 0.78990 -0.22800
C 	C 	0.28873 0.15650 0.72090 0.16900
C 	C 	0.40133 0.19660 0.71710 -0.21700
C 	C 	0.25633 0.06580 0.64910 -0.21600
C 	C 	0.01023 0.05410 0.52220 0.52800
C 	C 	0.12713 0.11339 0.56390 -0.55300
C 	C 	0.15333 0.16700 0.51960 1.00700
C 	C 	0.19433 0.11170 0.42590 -1.58500
C 	C 	0.24883 0.24100 0.57030 -1.49500
C 	C 	0.59250 0.50290 0.28220 0.09900
C 	C 	0.40540 0.44130 0.29070 0.10800
C 	C 	0.37430 0.41580 0.20570 -0.23000
C 	C 	0.45540 0.43560 0.15650 0.16900
C 	C 	0.56800 0.47950 0.19660 -0.21900
C 	C 	0.42300 0.41670 0.06580 -0.21600
C 	C 	0.17690 0.53190 0.05410 0.47300
C 	C 	0.29380 0.54949 0.11339 -0.53300
C 	C 	0.32000 0.64740 0.16700 0.98900
C 	C 	0.36100 0.68580 0.11170 -1.56400
C 	C 	0.41550 0.67070 0.24100 -1.47700
C 	C 	0.25917 0.77930 0.49710 0.07700
C 	C 	0.07207 0.84940 0.55870 0.04100
C 	C 	0.04097 0.78990 0.58420 -0.08400
C 	C 	0.12207 0.72090 0.56440 0.11200
C 	C 	0.23467 0.71710 0.52050 -0.17200
C 	C 	0.08967 0.64910 0.58330 -0.17400
C 	C 	0.84357 0.52220 0.46810 0.43100
C 	C 	0.96047 0.56390 0.45051 -0.39600
C 	C 	0.98667 0.51960 0.35260 0.51500
C 	C 	0.02767 0.42590 0.31420 -0.83500
C 	C 	0.08217 0.57030 0.32930 -0.96100
C 	C 	0.92583 0.71780 0.22070 -0.02600
C 	C 	0.73873 0.70930 0.15060 0.08300
C 	C 	0.70763 0.79430 0.21010 -0.19900
C 	C 	0.78873 0.84350 0.27910 0.12200
C 	C 	0.90133 0.80340 0.28290 -0.14200
C 	C 	0.75633 0.93420 0.35090 -0.18700
C 	C 	0.51023 0.94590 0.47780 0.47100
C 	C 	0.62713 0.88661 0.43610 -0.51900
C 	C 	0.65333 0.83300 0.48040 0.94900
C 	C 	0.69433 0.88830 0.57410 -1.50300
C 	C 	0.74883 0.75900 0.42970 -1.42500
N 	N 	0.01090 0.51520 0.67010 -0.22500
N 	N 	0.90320 0.50247 0.93933 -0.18900
N 	N 	0.67757 0.15490 0.48480 -0.27300
N 	N 	0.56987 0.43686 0.49753 -0.17700
N 	N 	0.34423 0.32990 0.84510 -0.27200
N 	N 	0.23653 0.06067 0.56314 -0.17400
N 	N 	0.51090 0.48480 0.32990 -0.27300
N 	N 	0.40320 0.49753 0.06067 -0.17600
N 	N 	0.17757 0.84510 0.51520 -0.25400
N 	N 	0.06987 0.56314 0.50247 -0.18700
N 	N 	0.84423 0.67010 0.15490 -0.25400
N 	N 	0.73653 0.93933 0.43686 -0.18100
Cl	Cl	0.88118 0.45509 0.13107 -0.60600
Cl	Cl	0.54785 0.67598 0.54491 -0.58900
Cl	Cl	0.21451 0.86893 0.32402 -0.57300
Cl	Cl	0.38118 0.54491 0.86893 -0.58400
Cl	Cl	0.04785 0.32402 0.45509 -0.55100
Cl	Cl	0.71451 0.13107 0.67598 -0.59500
O 	O 	0.68800 0.51491 0.02642 -0.48400
O 	O 	0.57650 0.43361 0.90608 -0.47600
O 	O 	0.35467 0.51151 0.48509 -0.47800
O 	O 	0.24317 0.47247 0.56639 -0.47500
O 	O 	0.02133 0.97358 0.48849 -0.47600
O 	O 	0.90983 0.09392 0.52753 -0.52200
O 	O 	0.18800 0.48509 0.97358 -0.46900
O 	O 	0.07650 0.56639 0.09392 -0.45200
O 	O 	0.85467 0.48849 0.51491 -0.48700
O 	O 	0.74317 0.52753 0.43361 -0.46700
O 	O 	0.52133 0.02642 0.51151 -0.48400
O 	O 	0.40983 0.90608 0.47247 -0.47700
