data_crystal

_cell_length_a 7.21690
_cell_length_b 16.93890
_cell_length_c 17.08970
_cell_angle_alpha 90.00000
_cell_angle_beta  95.51300
_cell_angle_gamma 90.00000

_symmetry_space_group_name_	'P 1'
_symmetry_space_group_name_H-M	'P 1'

loop_
_symmetry_equiv_pos_as_xyz
  x,y,z

loop_
_atom_site_label
_atom_site_type_symbol
_atom_site_fract_x
_atom_site_fract_y
_atom_site_fract_z
_atom_site_charge
Zn	Zn	0.93182 0.79919 0.30864 1.21000
Zn	Zn	0.56818 0.29919 0.19136 1.21100
Zn	Zn	0.06818 0.20081 0.69136 1.21000
Zn	Zn	0.43182 0.70081 0.80864 1.21100
H 	H 	0.59370 0.92780 0.42570 0.09600
H 	H 	0.93260 0.93890 0.44750 0.03100
H 	H 	0.82250 0.01760 0.46010 0.04600
H 	H 	0.24680 0.66670 0.43600 0.05000
H 	H 	0.25280 0.65720 0.34510 0.04700
H 	H 	0.22710 0.79930 0.53410 0.07900
H 	H 	0.70350 0.86850 0.65300 0.10900
H 	H 	0.47040 0.48620 0.19810 0.03200
H 	H 	0.39260 0.53110 0.37080 0.06700
H 	H 	0.34870 0.54100 0.45840 0.06000
H 	H 	0.88800 0.72470 0.47930 0.02600
H 	H 	0.61490 0.65250 0.51640 0.03400
H 	H 	0.52560 0.72110 0.29530 0.00000
H 	H 	0.02040 0.55140 0.41030 0.05900
H 	H 	0.10470 0.46710 0.39940 0.06000
H 	H 	0.15350 0.50110 0.26920 0.06500
H 	H 	0.05620 0.58240 0.28080 0.05600
H 	H 	0.92530 0.37510 0.27280 -0.00000
H 	H 	0.69920 0.58620 0.24350 0.04400
H 	H 	0.90630 0.42780 0.07430 0.09500
H 	H 	0.56740 0.43890 0.05250 0.03000
H 	H 	0.67750 0.51760 0.03990 0.04300
H 	H 	0.25320 0.16670 0.06400 0.04900
H 	H 	0.24720 0.15720 0.15490 0.04600
H 	H 	0.27290 0.29930 0.96590 0.07700
H 	H 	0.79650 0.36850 0.84700 0.10800
H 	H 	0.02960 0.98620 0.30190 0.03900
H 	H 	0.10740 0.03110 0.12920 0.06600
H 	H 	0.15130 0.04100 0.04160 0.06000
H 	H 	0.61200 0.22470 0.02070 0.02600
H 	H 	0.88510 0.15250 0.98360 0.03600
H 	H 	0.97440 0.22110 0.20470 0.00100
H 	H 	0.47960 0.05140 0.08970 0.05900
H 	H 	0.39530 0.96710 0.10060 0.06100
H 	H 	0.34650 0.00110 0.23080 0.06400
H 	H 	0.44380 0.08240 0.21920 0.05600
H 	H 	0.57470 0.87510 0.22720 -0.00000
H 	H 	0.80080 0.08620 0.25650 0.04100
H 	H 	0.40630 0.07220 0.57430 0.09500
H 	H 	0.06740 0.06110 0.55250 0.03000
H 	H 	0.17750 0.98240 0.53990 0.04500
H 	H 	0.75320 0.33330 0.56400 0.04900
H 	H 	0.74720 0.34280 0.65490 0.04600
H 	H 	0.77290 0.20070 0.46590 0.07800
H 	H 	0.29650 0.13150 0.34700 0.10900
H 	H 	0.52960 0.51380 0.80190 0.03200
H 	H 	0.60740 0.46890 0.62920 0.06700
H 	H 	0.65130 0.45900 0.54160 0.06000
H 	H 	0.11200 0.27530 0.52070 0.02600
H 	H 	0.38510 0.34750 0.48360 0.03400
H 	H 	0.47440 0.27890 0.70470 0.00000
H 	H 	0.97960 0.44860 0.58970 0.05900
H 	H 	0.89530 0.53290 0.60060 0.06000
H 	H 	0.84650 0.49890 0.73080 0.06500
H 	H 	0.94380 0.41760 0.71920 0.05600
H 	H 	0.07470 0.62490 0.72720 -0.00000
H 	H 	0.30080 0.41380 0.75650 0.04400
H 	H 	0.09370 0.57220 0.92570 0.09500
H 	H 	0.43260 0.56110 0.94750 0.03000
H 	H 	0.32250 0.48240 0.96010 0.04300
H 	H 	0.74680 0.83330 0.93600 0.04900
H 	H 	0.75280 0.84280 0.84510 0.04600
H 	H 	0.72710 0.70070 0.03410 0.07700
H 	H 	0.20350 0.63150 0.15300 0.10800
H 	H 	0.97040 0.01380 0.69810 0.03900
H 	H 	0.89260 0.96890 0.87080 0.06600
H 	H 	0.84870 0.95900 0.95840 0.06000
H 	H 	0.38800 0.77530 0.97930 0.02600
H 	H 	0.11490 0.84750 0.01640 0.03600
H 	H 	0.02560 0.77890 0.79530 0.00100
H 	H 	0.52040 0.94860 0.91030 0.05900
H 	H 	0.60470 0.03290 0.89940 0.06100
H 	H 	0.65350 0.99890 0.76920 0.06400
H 	H 	0.55620 0.91760 0.78080 0.05600
H 	H 	0.42530 0.12490 0.77280 -0.00000
H 	H 	0.19920 0.91380 0.74350 0.04100
C 	C 	0.55950 0.90270 0.47060 -0.15400
C 	C 	0.67430 0.90570 0.54110 0.20000
C 	C 	0.90990 0.97970 0.48520 0.01600
C 	C 	0.31510 0.64270 0.39590 -0.04300
C 	C 	0.34120 0.82502 0.53564 -0.06100
C 	C 	0.62420 0.86720 0.60681 -0.15200
C 	C 	0.39330 0.86135 0.46888 0.00100
C 	C 	0.26840 0.85650 0.39230 0.31200
C 	C 	0.59150 0.47620 0.21950 0.01000
C 	C 	0.45770 0.82660 0.60500 0.00400
C 	C 	0.30760 0.55510 0.40450 -0.11300
C 	C 	0.40620 0.78310 0.67620 0.27300
C 	C 	0.78060 0.71460 0.44630 0.00700
C 	C 	0.62970 0.67500 0.46780 -0.00400
C 	C 	0.58330 0.71310 0.34570 0.09600
C 	C 	0.10930 0.52180 0.38290 -0.10000
C 	C 	0.05830 0.52730 0.29620 -0.05600
C 	C 	0.83940 0.41510 0.26030 0.09700
C 	C 	0.71660 0.53180 0.24420 -0.01000
C 	C 	0.94050 0.40270 0.02940 -0.15500
C 	C 	0.82570 0.40570 0.95890 0.20000
C 	C 	0.59010 0.47970 0.01480 0.01800
C 	C 	0.18490 0.14270 0.10410 -0.04400
C 	C 	0.15880 0.32502 0.96436 -0.06200
C 	C 	0.87580 0.36720 0.89319 -0.14800
C 	C 	0.10670 0.36135 0.03112 0.00100
C 	C 	0.23160 0.35650 0.10770 0.31200
C 	C 	0.90850 0.97620 0.28050 -0.00100
C 	C 	0.04230 0.32660 0.89500 0.00100
C 	C 	0.19240 0.05510 0.09550 -0.11200
C 	C 	0.09380 0.28310 0.82380 0.27000
C 	C 	0.71940 0.21460 0.05370 0.00800
C 	C 	0.87030 0.17500 0.03220 -0.00600
C 	C 	0.91670 0.21310 0.15430 0.09600
C 	C 	0.39070 0.02180 0.11710 -0.10100
C 	C 	0.44170 0.02730 0.20380 -0.05600
C 	C 	0.66060 0.91510 0.23970 0.09700
C 	C 	0.78340 0.03180 0.25580 -0.00200
C 	C 	0.44050 0.09730 0.52940 -0.15400
C 	C 	0.32570 0.09430 0.45890 0.20000
C 	C 	0.09010 0.02030 0.51480 0.01600
C 	C 	0.68490 0.35730 0.60410 -0.04300
C 	C 	0.65880 0.17498 0.46436 -0.06100
C 	C 	0.37580 0.13280 0.39319 -0.15200
C 	C 	0.60670 0.13865 0.53112 0.00100
C 	C 	0.73160 0.14350 0.60770 0.31200
C 	C 	0.40850 0.52380 0.78050 0.01000
C 	C 	0.54230 0.17340 0.39500 0.00400
C 	C 	0.69240 0.44490 0.59550 -0.11300
C 	C 	0.59380 0.21690 0.32380 0.27300
C 	C 	0.21940 0.28540 0.55370 0.00700
C 	C 	0.37030 0.32500 0.53220 -0.00400
C 	C 	0.41670 0.28690 0.65430 0.09600
C 	C 	0.89070 0.47820 0.61710 -0.10000
C 	C 	0.94170 0.47270 0.70380 -0.05600
C 	C 	0.16060 0.58490 0.73970 0.09700
C 	C 	0.28340 0.46820 0.75580 -0.01000
C 	C 	0.05950 0.59730 0.97060 -0.15500
C 	C 	0.17430 0.59430 0.04110 0.20000
C 	C 	0.40990 0.52030 0.98520 0.01800
C 	C 	0.81510 0.85730 0.89590 -0.04400
C 	C 	0.84120 0.67498 0.03564 -0.06200
C 	C 	0.12420 0.63280 0.10681 -0.14800
C 	C 	0.89330 0.63865 0.96888 0.00100
C 	C 	0.76840 0.64350 0.89230 0.31200
C 	C 	0.09150 0.02380 0.71950 -0.00100
C 	C 	0.95770 0.67340 0.10500 0.00100
C 	C 	0.80760 0.94490 0.90450 -0.11200
C 	C 	0.90620 0.71690 0.17620 0.27000
C 	C 	0.28060 0.78540 0.94630 0.00800
C 	C 	0.12970 0.82500 0.96780 -0.00600
C 	C 	0.08330 0.78690 0.84570 0.09600
C 	C 	0.60930 0.97820 0.88290 -0.10100
C 	C 	0.55830 0.97270 0.79620 -0.05600
C 	C 	0.33940 0.08490 0.76030 0.09700
C 	C 	0.21660 0.96820 0.74420 -0.00200
N 	N 	0.50400 0.67526 0.40246 -0.11800
N 	N 	0.75220 0.73749 0.36926 -0.25900
N 	N 	0.66810 0.40307 0.23026 -0.26900
N 	N 	0.87580 0.49148 0.27072 -0.11400
N 	N 	0.99600 0.17526 0.09754 -0.11700
N 	N 	0.74780 0.23749 0.13074 -0.25800
N 	N 	0.83190 0.90307 0.26974 -0.26800
N 	N 	0.62420 0.99148 0.22928 -0.11500
N 	N 	0.49600 0.32474 0.59754 -0.11800
N 	N 	0.24780 0.26251 0.63074 -0.25900
N 	N 	0.33190 0.59693 0.76974 -0.26900
N 	N 	0.12420 0.50852 0.72928 -0.11400
N 	N 	0.00400 0.82474 0.90246 -0.11700
N 	N 	0.25220 0.76251 0.86926 -0.25800
N 	N 	0.16810 0.09693 0.73026 -0.26800
N 	N 	0.37580 0.00852 0.77072 -0.11500
O 	O 	0.11890 0.81543 0.39671 -0.45100
O 	O 	0.83900 0.94667 0.55131 -0.23000
O 	O 	0.24390 0.76070 0.68008 -0.31800
O 	O 	0.31020 0.88907 0.33256 -0.29600
O 	O 	0.53700 0.77009 0.73153 -0.43400
O 	O 	0.38110 0.31543 0.10329 -0.45300
O 	O 	0.66100 0.44667 0.94869 -0.23000
O 	O 	0.25610 0.26070 0.81992 -0.31800
O 	O 	0.18980 0.38907 0.16744 -0.29600
O 	O 	0.96300 0.27009 0.76847 -0.43100
O 	O 	0.88110 0.18457 0.60329 -0.45100
O 	O 	0.16100 0.05333 0.44869 -0.23000
O 	O 	0.75610 0.23930 0.31992 -0.31800
O 	O 	0.68980 0.11093 0.66744 -0.29600
O 	O 	0.46300 0.22991 0.26847 -0.43400
O 	O 	0.61890 0.68457 0.89671 -0.45300
O 	O 	0.33900 0.55333 0.05131 -0.23000
O 	O 	0.74390 0.73930 0.18008 -0.31800
O 	O 	0.81020 0.61093 0.83256 -0.29600
O 	O 	0.03700 0.72991 0.23153 -0.43100
