data_crystal

_cell_length_a 11.21890
_cell_length_b 11.21890
_cell_length_c 21.25500
_cell_angle_alpha 95.73890
_cell_angle_beta  95.73890
_cell_angle_gamma 107.19200

_symmetry_space_group_name_	'P 1'
_symmetry_space_group_name_H-M	'P 1'

loop_
_symmetry_equiv_pos_as_xyz
  x,y,z

loop_
_atom_site_label
_atom_site_type_symbol
_atom_site_fract_x
_atom_site_fract_y
_atom_site_fract_z
_atom_site_charge
Fe	Fe	0.98316 0.50002 0.19241 1.11200
Fe	Fe	0.49998 0.01684 0.30759 1.11200
Fe	Fe	0.01684 0.49998 0.80759 1.11200
Fe	Fe	0.50002 0.98316 0.69241 1.11200
Fe	Fe	0.75296 0.24704 0.25000 1.19500
Fe	Fe	0.24704 0.75296 0.75000 1.19500
H 	H 	0.00700 0.71920 0.39790 0.03400
H 	H 	0.03190 0.74310 0.50660 0.07000
H 	H 	0.95490 0.34870 0.39130 0.05500
H 	H 	0.90410 0.98430 0.14710 0.03300
H 	H 	0.93800 0.83100 0.07790 0.05100
H 	H 	0.01100 0.23800 0.02900 0.04400
H 	H 	0.48110 0.26590 0.09420 0.03900
H 	H 	0.34250 0.27750 0.00980 0.06300
H 	H 	0.71300 0.60540 0.07650 0.04700
H 	H 	0.28080 0.99300 0.10210 0.03500
H 	H 	0.25690 0.96810 0.99340 0.06600
H 	H 	0.65130 0.04510 0.10870 0.05500
H 	H 	0.01570 0.09590 0.35290 0.03100
H 	H 	0.16900 0.06200 0.42210 0.05200
H 	H 	0.76200 0.98900 0.47100 0.04100
H 	H 	0.73410 0.51890 0.40580 0.03900
H 	H 	0.72250 0.65750 0.49020 0.06300
H 	H 	0.39460 0.28700 0.42350 0.04700
H 	H 	0.99300 0.28080 0.60210 0.03400
H 	H 	0.96810 0.25690 0.49340 0.07000
H 	H 	0.04510 0.65130 0.60870 0.05500
H 	H 	0.09590 0.01570 0.85290 0.03300
H 	H 	0.06200 0.16900 0.92210 0.05100
H 	H 	0.98900 0.76200 0.97100 0.04400
H 	H 	0.51890 0.73410 0.90580 0.03900
H 	H 	0.65750 0.72250 0.99020 0.06300
H 	H 	0.28700 0.39460 0.92350 0.04700
H 	H 	0.71920 0.00700 0.89790 0.03500
H 	H 	0.74310 0.03190 0.00660 0.06600
H 	H 	0.34870 0.95490 0.89130 0.05500
H 	H 	0.98430 0.90410 0.64710 0.03100
H 	H 	0.83100 0.93800 0.57790 0.05200
H 	H 	0.23800 0.01100 0.52900 0.04100
H 	H 	0.26590 0.48110 0.59420 0.03900
H 	H 	0.27750 0.34250 0.50980 0.06300
H 	H 	0.60540 0.71300 0.57650 0.04700
C 	C 	0.96670 0.51750 0.31240 0.33800
C 	C 	0.97720 0.52940 0.38400 -0.09000
C 	C 	0.00160 0.64960 0.41910 0.01500
C 	C 	0.01730 0.66370 0.48400 -0.09900
C 	C 	0.01220 0.56040 0.51770 0.02800
C 	C 	0.97070 0.42750 0.41490 -0.04100
C 	C 	0.92360 0.22320 0.13960 0.36800
C 	C 	0.95290 0.12690 0.09360 -0.09500
C 	C 	0.93150 0.00370 0.10840 0.01300
C 	C 	0.95050 0.91150 0.06690 -0.09500
C 	C 	0.99380 0.15560 0.03790 -0.03500
C 	C 	0.98840 0.93840 0.00810 0.01700
C 	C 	0.70430 0.42510 0.14820 0.38100
C 	C 	0.61240 0.43440 0.09370 -0.09600
C 	C 	0.49990 0.33670 0.07320 0.01700
C 	C 	0.41660 0.34340 0.02270 -0.09600
C 	C 	0.44350 0.45090 0.99000 0.02000
C 	C 	0.63920 0.53960 0.06260 -0.03700
C 	C 	0.48250 0.03330 0.18760 0.33800
C 	C 	0.47060 0.02280 0.11600 -0.09000
C 	C 	0.35040 0.99840 0.08090 0.01200
C 	C 	0.33630 0.98270 0.01600 -0.09000
C 	C 	0.43960 0.98780 0.98230 0.02400
C 	C 	0.57250 0.02930 0.08510 -0.04000
C 	C 	0.77680 0.07640 0.36040 0.37000
C 	C 	0.87310 0.04710 0.40640 -0.09800
C 	C 	0.99630 0.06850 0.39160 0.01900
C 	C 	0.08850 0.04950 0.43310 -0.09900
C 	C 	0.84440 0.00620 0.46210 -0.02900
C 	C 	0.06160 0.01160 0.49190 0.01500
C 	C 	0.57490 0.29570 0.35180 0.38100
C 	C 	0.56560 0.38760 0.40630 -0.09600
C 	C 	0.66330 0.50010 0.42680 0.01700
C 	C 	0.65660 0.58340 0.47730 -0.09600
C 	C 	0.54910 0.55650 0.51000 0.02000
C 	C 	0.46040 0.36080 0.43740 -0.03700
C 	C 	0.03330 0.48250 0.68760 0.33800
C 	C 	0.02280 0.47060 0.61600 -0.09000
C 	C 	0.99840 0.35040 0.58090 0.01500
C 	C 	0.98270 0.33630 0.51600 -0.09900
C 	C 	0.98780 0.43960 0.48230 0.02800
C 	C 	0.02930 0.57250 0.58510 -0.04100
C 	C 	0.07640 0.77680 0.86040 0.36800
C 	C 	0.04710 0.87310 0.90640 -0.09500
C 	C 	0.06850 0.99630 0.89160 0.01300
C 	C 	0.04950 0.08850 0.93310 -0.09500
C 	C 	0.00620 0.84440 0.96210 -0.03500
C 	C 	0.01160 0.06160 0.99190 0.01700
C 	C 	0.29570 0.57490 0.85180 0.38100
C 	C 	0.38760 0.56560 0.90630 -0.09600
C 	C 	0.50010 0.66330 0.92680 0.01700
C 	C 	0.58340 0.65660 0.97730 -0.09600
C 	C 	0.55650 0.54910 0.01000 0.02000
C 	C 	0.36080 0.46040 0.93740 -0.03700
C 	C 	0.51750 0.96670 0.81240 0.33800
C 	C 	0.52940 0.97720 0.88400 -0.09000
C 	C 	0.64960 0.00160 0.91910 0.01200
C 	C 	0.66370 0.01730 0.98400 -0.09000
C 	C 	0.56040 0.01220 0.01770 0.02400
C 	C 	0.42750 0.97070 0.91490 -0.04000
C 	C 	0.22320 0.92360 0.63960 0.37000
C 	C 	0.12690 0.95290 0.59360 -0.09800
C 	C 	0.00370 0.93150 0.60840 0.01900
C 	C 	0.91150 0.95050 0.56690 -0.09900
C 	C 	0.15560 0.99380 0.53790 -0.02900
C 	C 	0.93840 0.98840 0.50810 0.01500
C 	C 	0.42510 0.70430 0.64820 0.38100
C 	C 	0.43440 0.61240 0.59370 -0.09600
C 	C 	0.33670 0.49990 0.57320 0.01700
C 	C 	0.34340 0.41660 0.52270 -0.09600
C 	C 	0.45090 0.44350 0.49000 0.02000
C 	C 	0.53960 0.63920 0.56260 -0.03700
O 	O 	0.00660 0.61300 0.28654 -0.42000
O 	O 	0.92286 0.40914 0.27967 -0.49400
O 	O 	0.96130 0.33610 0.12924 -0.45600
O 	O 	0.86320 0.18320 0.18330 -0.41500
O 	O 	0.80850 0.51030 0.15875 -0.45600
O 	O 	0.67030 0.33210 0.17726 -0.41800
O 	O 	0.38700 0.99340 0.21346 -0.41900
O 	O 	0.59086 0.07714 0.22033 -0.49400
O 	O 	0.66390 0.03870 0.37076 -0.45600
O 	O 	0.81680 0.13680 0.31670 -0.41600
O 	O 	0.48970 0.19150 0.34125 -0.45600
O 	O 	0.66790 0.32970 0.32274 -0.41800
O 	O 	0.99340 0.38700 0.71346 -0.42000
O 	O 	0.07714 0.59086 0.72033 -0.49400
O 	O 	0.03870 0.66390 0.87076 -0.45600
O 	O 	0.13680 0.81680 0.81670 -0.41500
O 	O 	0.19150 0.48970 0.84125 -0.45600
O 	O 	0.32970 0.66790 0.82274 -0.41800
O 	O 	0.61300 0.00660 0.78654 -0.41900
O 	O 	0.40914 0.92286 0.77967 -0.49400
O 	O 	0.33610 0.96130 0.62924 -0.45600
O 	O 	0.18320 0.86320 0.68330 -0.41600
O 	O 	0.51030 0.80850 0.65875 -0.45600
O 	O 	0.33210 0.67030 0.67726 -0.41800
