data_crystal

_cell_length_a 15.41280
_cell_length_b 15.41280
_cell_length_c 15.41280
_cell_angle_alpha 76.34120
_cell_angle_beta  76.34120
_cell_angle_gamma 76.34120

_symmetry_space_group_name_	'P 1'
_symmetry_space_group_name_H-M	'P 1'

loop_
_symmetry_equiv_pos_as_xyz
  x,y,z

loop_
_atom_site_label
_atom_site_type_symbol
_atom_site_fract_x
_atom_site_fract_y
_atom_site_fract_z
_atom_site_charge
Zn	Zn	0.08821 0.51326 0.51326 1.19500
Zn	Zn	0.51326 0.08821 0.51326 1.19500
Zn	Zn	0.51326 0.51326 0.08821 1.19500
Zn	Zn	0.48674 0.91179 0.48674 1.19500
Zn	Zn	0.91179 0.48674 0.48674 1.19500
Zn	Zn	0.48674 0.48674 0.91179 1.19500
H 	H 	0.98680 0.19690 0.50640 0.04500
H 	H 	0.50640 0.98680 0.19690 0.04500
H 	H 	0.19690 0.50640 0.98680 0.04500
H 	H 	0.80310 0.01320 0.49360 0.04500
H 	H 	0.01320 0.49360 0.80310 0.04500
H 	H 	0.49360 0.80310 0.01320 0.04500
H 	H 	0.01320 0.80310 0.49360 0.04500
H 	H 	0.49360 0.01320 0.80310 0.04500
H 	H 	0.80310 0.49360 0.01320 0.04500
H 	H 	0.19690 0.98680 0.50640 0.04500
H 	H 	0.98680 0.50640 0.19690 0.04500
H 	H 	0.50640 0.19690 0.98680 0.04500
H 	H 	0.23250 0.23250 0.52300 0.03300
H 	H 	0.52300 0.23250 0.23250 0.03300
H 	H 	0.23250 0.52300 0.23250 0.03300
H 	H 	0.76750 0.76750 0.47700 0.03300
H 	H 	0.76750 0.47700 0.76750 0.03300
H 	H 	0.47700 0.76750 0.76750 0.03300
C 	C 	0.06550 0.32924 0.51427 0.42100
C 	C 	0.10383 0.23005 0.51534 -0.11700
C 	C 	0.04762 0.17342 0.50962 -0.00500
C 	C 	0.51427 0.06550 0.32924 0.42100
C 	C 	0.51534 0.10383 0.23005 -0.11700
C 	C 	0.50962 0.04762 0.17342 -0.00500
C 	C 	0.32924 0.51427 0.06550 0.42100
C 	C 	0.23005 0.51534 0.10383 -0.11700
C 	C 	0.17342 0.50962 0.04762 -0.00500
C 	C 	0.67076 0.93450 0.48573 0.42100
C 	C 	0.76995 0.89617 0.48466 -0.11700
C 	C 	0.82658 0.95238 0.49038 -0.00500
C 	C 	0.93450 0.48573 0.67076 0.42100
C 	C 	0.89617 0.48466 0.76995 -0.11700
C 	C 	0.95238 0.49038 0.82658 -0.00500
C 	C 	0.48573 0.67076 0.93450 0.42100
C 	C 	0.48466 0.76995 0.89617 -0.11700
C 	C 	0.49038 0.82658 0.95238 -0.00500
C 	C 	0.93450 0.67076 0.48573 0.42100
C 	C 	0.89617 0.76995 0.48466 -0.11700
C 	C 	0.95238 0.82658 0.49038 -0.00500
C 	C 	0.48573 0.93450 0.67076 0.42100
C 	C 	0.48466 0.89617 0.76995 -0.11700
C 	C 	0.49038 0.95238 0.82658 -0.00500
C 	C 	0.67076 0.48573 0.93450 0.42100
C 	C 	0.76995 0.48466 0.89617 -0.11700
C 	C 	0.82658 0.49038 0.95238 -0.00500
C 	C 	0.32924 0.06550 0.51427 0.42100
C 	C 	0.23005 0.10383 0.51534 -0.11700
C 	C 	0.17342 0.04762 0.50962 -0.00500
C 	C 	0.06550 0.51427 0.32924 0.42100
C 	C 	0.10383 0.51534 0.23005 -0.11700
C 	C 	0.04762 0.50962 0.17342 -0.00500
C 	C 	0.51427 0.32924 0.06550 0.42100
C 	C 	0.51534 0.23005 0.10383 -0.11700
C 	C 	0.50962 0.17342 0.04762 -0.00500
C 	C 	0.08242 0.08242 0.50867 -0.00200
C 	C 	0.02317 0.02317 0.50237 -0.01500
C 	C 	0.19501 0.19501 0.51866 0.05700
C 	C 	0.50867 0.08242 0.08242 -0.00200
C 	C 	0.50237 0.02317 0.02317 -0.01500
C 	C 	0.51866 0.19501 0.19501 0.05700
C 	C 	0.08242 0.50867 0.08242 -0.00200
C 	C 	0.02317 0.50237 0.02317 -0.01500
C 	C 	0.19501 0.51866 0.19501 0.05700
C 	C 	0.91758 0.91758 0.49133 -0.00200
C 	C 	0.97683 0.97683 0.49763 -0.01500
C 	C 	0.80499 0.80499 0.48134 0.05700
C 	C 	0.91758 0.49133 0.91758 -0.00200
C 	C 	0.97683 0.49763 0.97683 -0.01500
C 	C 	0.80499 0.48134 0.80499 0.05700
C 	C 	0.49133 0.91758 0.91758 -0.00200
C 	C 	0.49763 0.97683 0.97683 -0.01500
C 	C 	0.48134 0.80499 0.80499 0.05700
O 	O 	0.98579 0.35733 0.50559 -0.49600
O 	O 	0.11925 0.37579 0.52149 -0.48200
O 	O 	0.50559 0.98579 0.35733 -0.49600
O 	O 	0.52149 0.11925 0.37579 -0.48200
O 	O 	0.35733 0.50559 0.98579 -0.49600
O 	O 	0.37579 0.52149 0.11925 -0.48200
O 	O 	0.64267 0.01421 0.49441 -0.49600
O 	O 	0.62421 0.88075 0.47851 -0.48200
O 	O 	0.01421 0.49441 0.64267 -0.49600
O 	O 	0.88075 0.47851 0.62421 -0.48200
O 	O 	0.49441 0.64267 0.01421 -0.49600
O 	O 	0.47851 0.62421 0.88075 -0.48200
O 	O 	0.01421 0.64267 0.49441 -0.49600
O 	O 	0.88075 0.62421 0.47851 -0.48200
O 	O 	0.49441 0.01421 0.64267 -0.49600
O 	O 	0.47851 0.88075 0.62421 -0.48200
O 	O 	0.64267 0.49441 0.01421 -0.49600
O 	O 	0.62421 0.47851 0.88075 -0.48200
O 	O 	0.35733 0.98579 0.50559 -0.49600
O 	O 	0.37579 0.11925 0.52149 -0.48200
O 	O 	0.98579 0.50559 0.35733 -0.49600
O 	O 	0.11925 0.52149 0.37579 -0.48200
O 	O 	0.50559 0.35733 0.98579 -0.49600
O 	O 	0.52149 0.37579 0.11925 -0.48200
