data_crystal

_cell_length_a 10.43500
_cell_length_b 17.48070
_cell_length_c 17.48070
_cell_angle_alpha 120.00000
_cell_angle_beta  90.00000
_cell_angle_gamma 90.00000

_symmetry_space_group_name_	'P 1'
_symmetry_space_group_name_H-M	'P 1'

loop_
_symmetry_equiv_pos_as_xyz
  x,y,z

loop_
_atom_site_label
_atom_site_type_symbol
_atom_site_fract_x
_atom_site_fract_y
_atom_site_fract_z
_atom_site_charge
Zn	Zn	0.91201 0.53519 0.07126 1.18000
Zn	Zn	0.57868 0.53607 0.46481 1.17400
Zn	Zn	0.24534 0.92874 0.46393 1.17200
Zn	Zn	0.41201 0.46481 0.92874 1.17300
Zn	Zn	0.07868 0.46393 0.53519 1.16700
Zn	Zn	0.74534 0.07126 0.53607 1.17500
H 	H 	0.92580 0.34750 0.92640 0.21600
H 	H 	0.00900 0.47000 0.91930 0.07500
H 	H 	0.20370 0.46950 0.69240 -0.03500
H 	H 	0.16640 0.51680 0.83860 0.08500
H 	H 	0.82460 0.60750 0.81630 0.10900
H 	H 	0.87300 0.56100 0.67100 -0.02500
H 	H 	0.02870 0.62070 0.97580 0.03000
H 	H 	0.88210 0.62370 0.95720 0.05600
H 	H 	0.80890 0.47360 0.84530 0.13100
H 	H 	0.78190 0.31750 0.82100 -0.12600
H 	H 	0.90100 0.36920 0.72660 0.25700
H 	H 	0.89380 0.26930 0.70000 0.25100
H 	H 	0.01440 0.32570 0.75000 0.25200
H 	H 	0.59247 0.57890 0.65250 0.22100
H 	H 	0.67567 0.44930 0.53000 0.10300
H 	H 	0.87037 0.22290 0.53050 -0.01800
H 	H 	0.83307 0.32180 0.48320 0.07100
H 	H 	0.49127 0.20880 0.39250 0.09400
H 	H 	0.53967 0.11000 0.43900 -0.01000
H 	H 	0.69537 0.35510 0.37930 0.06600
H 	H 	0.54877 0.33350 0.37630 0.06500
H 	H 	0.47557 0.37170 0.52640 0.13900
H 	H 	0.44857 0.50350 0.68250 -0.14900
H 	H 	0.56767 0.35740 0.63080 0.30800
H 	H 	0.56047 0.43070 0.73070 0.30300
H 	H 	0.68107 0.42430 0.67430 0.33300
H 	H 	0.25913 0.07360 0.42110 0.21800
H 	H 	0.34233 0.08070 0.55070 0.10300
H 	H 	0.53703 0.30760 0.77710 -0.02500
H 	H 	0.49973 0.16140 0.67820 0.06600
H 	H 	0.15793 0.18370 0.79120 0.08800
H 	H 	0.20633 0.32900 0.89000 -0.01400
H 	H 	0.36203 0.02420 0.64490 0.06300
H 	H 	0.21543 0.04280 0.66650 0.06200
H 	H 	0.14223 0.15470 0.62830 0.13200
H 	H 	0.11523 0.17900 0.49650 -0.15500
H 	H 	0.23433 0.27340 0.64260 0.30400
H 	H 	0.22713 0.30000 0.56930 0.29800
H 	H 	0.34773 0.25000 0.57570 0.32800
H 	H 	0.42580 0.65250 0.07360 0.22000
H 	H 	0.50900 0.53000 0.08070 0.10200
H 	H 	0.70370 0.53050 0.30760 -0.02500
H 	H 	0.66640 0.48320 0.16140 0.06800
H 	H 	0.32460 0.39250 0.18370 0.09200
H 	H 	0.37300 0.43900 0.32900 -0.01100
H 	H 	0.52870 0.37930 0.02420 0.06400
H 	H 	0.38210 0.37630 0.04280 0.06400
H 	H 	0.30890 0.52640 0.15470 0.13900
H 	H 	0.28190 0.68250 0.17900 -0.15100
H 	H 	0.40100 0.63080 0.27340 0.30800
H 	H 	0.39380 0.73070 0.30000 0.30200
H 	H 	0.51440 0.67430 0.25000 0.33000
H 	H 	0.09247 0.42110 0.34750 0.19900
H 	H 	0.17567 0.55070 0.47000 0.10500
H 	H 	0.37037 0.77710 0.46950 -0.03000
H 	H 	0.33307 0.67820 0.51680 0.07300
H 	H 	0.99127 0.79120 0.60750 0.14600
H 	H 	0.03967 0.89000 0.56100 -0.03300
H 	H 	0.19537 0.64490 0.62070 0.06600
H 	H 	0.04877 0.66650 0.62370 0.05700
H 	H 	0.97557 0.62830 0.47360 0.12500
H 	H 	0.94857 0.49650 0.31750 -0.08700
H 	H 	0.06767 0.64260 0.36920 0.25500
H 	H 	0.06047 0.56930 0.26930 0.25000
H 	H 	0.18107 0.57570 0.32570 0.28400
H 	H 	0.75913 0.92640 0.57890 0.22200
H 	H 	0.84233 0.91930 0.44930 0.10700
H 	H 	0.03703 0.69240 0.22290 -0.06700
H 	H 	0.99973 0.83860 0.32180 0.09200
H 	H 	0.65793 0.81630 0.20880 0.10100
H 	H 	0.70633 0.67100 0.11000 -0.01400
H 	H 	0.86203 0.97580 0.35510 0.07200
H 	H 	0.71543 0.95720 0.33350 0.06900
H 	H 	0.64223 0.84530 0.37170 0.13900
H 	H 	0.61523 0.82100 0.50350 -0.15000
H 	H 	0.73433 0.72660 0.35740 0.31200
H 	H 	0.72713 0.70000 0.43070 0.30800
H 	H 	0.84773 0.75000 0.42430 0.34200
C 	C 	0.12640 0.49740 0.71750 0.09900
C 	C 	0.10430 0.52520 0.80530 -0.25700
C 	C 	0.98920 0.56570 0.84400 0.19500
C 	C 	0.90220 0.57940 0.79260 -0.24400
C 	C 	0.93180 0.55070 0.70480 0.14200
C 	C 	0.95860 0.58740 0.93700 -0.15100
C 	C 	0.82810 0.45290 0.88690 -0.34400
C 	C 	0.70890 0.46890 0.94390 0.42700
C 	C 	0.86030 0.35220 0.83120 0.47600
C 	C 	0.92310 0.32680 0.74410 -0.80400
C 	C 	0.79307 0.22010 0.50260 0.07400
C 	C 	0.77097 0.28010 0.47480 -0.19200
C 	C 	0.65587 0.27830 0.43430 0.14600
C 	C 	0.56887 0.21320 0.42060 -0.20700
C 	C 	0.59847 0.15410 0.44930 0.08600
C 	C 	0.62527 0.34960 0.41260 -0.19100
C 	C 	0.49477 0.43400 0.54710 -0.37000
C 	C 	0.37557 0.47500 0.53110 0.43400
C 	C 	0.52697 0.47900 0.64780 0.54700
C 	C 	0.58977 0.41730 0.67320 -0.99500
C 	C 	0.45973 0.28250 0.77990 0.07300
C 	C 	0.43763 0.19470 0.71990 -0.19200
C 	C 	0.32253 0.15600 0.72170 0.14200
C 	C 	0.23553 0.20740 0.78680 -0.20600
C 	C 	0.26513 0.29520 0.84590 0.08400
C 	C 	0.29193 0.06300 0.65040 -0.18800
C 	C 	0.16143 0.11310 0.56600 -0.35900
C 	C 	0.04223 0.05610 0.52500 0.39400
C 	C 	0.19363 0.16880 0.52100 0.54000
C 	C 	0.25643 0.25590 0.58270 -0.98600
C 	C 	0.62640 0.50260 0.28250 0.07300
C 	C 	0.60430 0.47480 0.19470 -0.19300
C 	C 	0.48920 0.43430 0.15600 0.14400
C 	C 	0.40220 0.42060 0.20740 -0.20600
C 	C 	0.43180 0.44930 0.29520 0.08500
C 	C 	0.45860 0.41260 0.06300 -0.19000
C 	C 	0.32810 0.54710 0.11310 -0.37200
C 	C 	0.20890 0.53110 0.05610 0.43600
C 	C 	0.36030 0.64780 0.16880 0.54800
C 	C 	0.42310 0.67320 0.25590 -0.99400
C 	C 	0.29307 0.77990 0.49740 0.08700
C 	C 	0.27097 0.71990 0.52520 -0.21500
C 	C 	0.15587 0.72170 0.56570 0.17700
C 	C 	0.06887 0.78680 0.57940 -0.29400
C 	C 	0.09847 0.84590 0.55070 0.12400
C 	C 	0.12527 0.65040 0.58740 -0.20600
C 	C 	0.99477 0.56600 0.45290 -0.28200
C 	C 	0.87557 0.52500 0.46890 0.41200
C 	C 	0.02697 0.52100 0.35220 0.40500
C 	C 	0.08977 0.58270 0.32680 -0.84400
C 	C 	0.95973 0.71750 0.22010 0.14700
C 	C 	0.93763 0.80530 0.28010 -0.23600
C 	C 	0.82253 0.84400 0.27830 0.16900
C 	C 	0.73553 0.79260 0.21320 -0.22500
C 	C 	0.76513 0.70480 0.15410 0.09700
C 	C 	0.79193 0.93700 0.34960 -0.20400
C 	C 	0.66143 0.88690 0.43400 -0.37100
C 	C 	0.54223 0.94390 0.47500 0.43100
C 	C 	0.69363 0.83120 0.47900 0.55000
C 	C 	0.75643 0.74410 0.41730 -1.00600
N 	N 	0.04100 0.50880 0.66650 -0.30900
N 	N 	0.93750 0.50400 0.94060 -0.19800
N 	N 	0.70767 0.15770 0.49120 -0.27800
N 	N 	0.60417 0.43660 0.49600 -0.21400
N 	N 	0.37433 0.33350 0.84230 -0.27900
N 	N 	0.27083 0.05940 0.56340 -0.21500
N 	N 	0.54100 0.49120 0.33350 -0.27900
N 	N 	0.43750 0.49600 0.05940 -0.21400
N 	N 	0.20767 0.84230 0.50880 -0.29000
N 	N 	0.10417 0.56340 0.50400 -0.23400
N 	N 	0.87433 0.66650 0.15770 -0.28900
N 	N 	0.77083 0.94060 0.43660 -0.21300
O 	O 	0.71910 0.50950 0.02590 -0.50100
O 	O 	0.60690 0.43950 0.90100 -0.50200
O 	O 	0.94980 0.32930 0.87540 -0.47100
O 	O 	0.38577 0.51640 0.49050 -0.50400
O 	O 	0.27357 0.46150 0.56050 -0.50600
O 	O 	0.61647 0.54610 0.67070 -0.50700
O 	O 	0.05243 0.97410 0.48360 -0.50600
O 	O 	0.94023 0.09900 0.53850 -0.46900
O 	O 	0.28313 0.12460 0.45390 -0.50700
O 	O 	0.21910 0.49050 0.97410 -0.50900
O 	O 	0.10690 0.56050 0.09900 -0.51300
O 	O 	0.44980 0.67070 0.12460 -0.50800
O 	O 	0.88577 0.48360 0.50950 -0.48600
O 	O 	0.77357 0.53850 0.43950 -0.49600
O 	O 	0.11647 0.45390 0.32930 -0.47100
O 	O 	0.55243 0.02590 0.51640 -0.50100
O 	O 	0.44023 0.90100 0.46150 -0.50400
O 	O 	0.78313 0.87540 0.54610 -0.50300
