data_crystal

_cell_length_a 10.32400
_cell_length_b 12.81300
_cell_length_c 15.52600
_cell_angle_alpha 90.00000
_cell_angle_beta  104.63300
_cell_angle_gamma 90.00000

_symmetry_space_group_name_	'P 1'
_symmetry_space_group_name_H-M	'P 1'

loop_
_symmetry_equiv_pos_as_xyz
  x,y,z

loop_
_atom_site_label
_atom_site_type_symbol
_atom_site_fract_x
_atom_site_fract_y
_atom_site_fract_z
_atom_site_charge
Zn	Zn	0.75000 0.81232 0.50000 1.21300
Zn	Zn	0.25000 0.18768 0.50000 1.21300
H 	H 	0.48880 0.83750 0.33950 -0.01300
H 	H 	0.76690 0.04770 0.41760 0.02200
H 	H 	0.60220 0.12330 0.29110 0.03400
H 	H 	0.34260 0.84190 0.20130 0.05500
H 	H 	0.15900 0.86170 0.07890 0.05000
H 	H 	0.18180 0.16860 0.10790 0.05400
H 	H 	0.37010 0.15170 0.22400 0.07000
H 	H 	0.04240 0.69580 0.34240 0.03100
H 	H 	0.10250 0.62670 0.22090 0.07400
H 	H 	0.72720 0.52700 0.11980 0.08100
H 	H 	0.66510 0.59480 0.24070 0.02500
H 	H 	0.87070 0.37390 0.15120 0.24400
H 	H 	0.96290 0.29150 0.12140 0.24200
H 	H 	0.81720 0.31090 0.06280 0.22800
H 	H 	0.02050 0.67250 0.04290 0.08300
H 	H 	0.01120 0.83750 0.66050 -0.01300
H 	H 	0.73310 0.04770 0.58240 0.02300
H 	H 	0.89780 0.12330 0.70890 0.03500
H 	H 	0.15740 0.84190 0.79870 0.05600
H 	H 	0.34100 0.86170 0.92110 0.05100
H 	H 	0.31820 0.16860 0.89210 0.05500
H 	H 	0.12990 0.15170 0.77600 0.07000
H 	H 	0.45760 0.69580 0.65760 0.03100
H 	H 	0.39750 0.62670 0.77910 0.07500
H 	H 	0.77280 0.52700 0.88020 0.08200
H 	H 	0.83490 0.59480 0.75930 0.02400
H 	H 	0.62930 0.37390 0.84880 0.24500
H 	H 	0.53710 0.29150 0.87860 0.24300
H 	H 	0.68280 0.31090 0.93720 0.22900
H 	H 	0.47950 0.67250 0.95710 0.08400
H 	H 	0.51120 0.16250 0.66050 -0.01200
H 	H 	0.23310 0.95230 0.58240 0.02300
H 	H 	0.39780 0.87670 0.70890 0.03500
H 	H 	0.65740 0.15810 0.79870 0.05600
H 	H 	0.84100 0.13830 0.92110 0.05100
H 	H 	0.81820 0.83140 0.89210 0.05500
H 	H 	0.62990 0.84830 0.77600 0.07100
H 	H 	0.95760 0.30420 0.65760 0.03200
H 	H 	0.89750 0.37330 0.77910 0.07400
H 	H 	0.27280 0.47300 0.88020 0.08100
H 	H 	0.33490 0.40520 0.75930 0.02500
H 	H 	0.12930 0.62610 0.84880 0.24400
H 	H 	0.03710 0.70850 0.87860 0.24200
H 	H 	0.18280 0.68910 0.93720 0.22800
H 	H 	0.97950 0.32750 0.95710 0.08300
H 	H 	0.98880 0.16250 0.33950 -0.01300
H 	H 	0.26690 0.95230 0.41760 0.02300
H 	H 	0.10220 0.87670 0.29110 0.03500
H 	H 	0.84260 0.15810 0.20130 0.05600
H 	H 	0.65900 0.13830 0.07890 0.05100
H 	H 	0.68180 0.83140 0.10790 0.05500
H 	H 	0.87010 0.84830 0.22400 0.07000
H 	H 	0.54240 0.30420 0.34240 0.03100
H 	H 	0.60250 0.37330 0.22090 0.07500
H 	H 	0.22720 0.47300 0.11980 0.08200
H 	H 	0.16510 0.40520 0.24070 0.02400
H 	H 	0.37070 0.62610 0.15120 0.24500
H 	H 	0.46290 0.70850 0.12140 0.24300
H 	H 	0.31720 0.68910 0.06280 0.22900
H 	H 	0.52050 0.32750 0.04290 0.08400
C 	C 	0.53300 0.90140 0.34750 0.11400
C 	C 	0.68670 0.01660 0.38800 -0.00000
C 	C 	0.59670 0.05950 0.31850 0.00200
C 	C 	0.37510 0.99540 0.22430 0.10200
C 	C 	0.31140 0.90820 0.18210 -0.09100
C 	C 	0.19970 0.91990 0.11020 -0.06200
C 	C 	0.15060 0.01750 0.08600 0.08200
C 	C 	0.21420 0.10250 0.12680 -0.06200
C 	C 	0.32680 0.09250 0.19620 -0.08700
C 	C 	0.80330 0.70340 0.37950 0.31100
C 	C 	0.84540 0.65380 0.30360 -0.10500
C 	C 	0.97880 0.66250 0.29770 0.04000
C 	C 	0.01430 0.62100 0.22460 -0.13100
C 	C 	0.92090 0.57080 0.15630 0.08700
C 	C 	0.79050 0.56130 0.16410 -0.14800
C 	C 	0.75300 0.60210 0.23670 0.04700
C 	C 	0.95980 0.53150 0.07570 -0.07300
C 	C 	0.94660 0.42680 0.05000 0.20700
C 	C 	0.89460 0.34320 0.10100 -0.71700
C 	C 	0.01250 0.60290 0.02550 -0.15800
C 	C 	0.96700 0.90140 0.65250 0.11500
C 	C 	0.81330 0.01660 0.61200 -0.00000
C 	C 	0.90330 0.05950 0.68150 0.00300
C 	C 	0.12490 0.99540 0.77570 0.10200
C 	C 	0.18860 0.90820 0.81790 -0.09100
C 	C 	0.30030 0.91990 0.88980 -0.06200
C 	C 	0.34940 0.01750 0.91400 0.08100
C 	C 	0.28580 0.10250 0.87320 -0.06200
C 	C 	0.17320 0.09250 0.80380 -0.08700
C 	C 	0.69670 0.70340 0.62050 0.31100
C 	C 	0.65460 0.65380 0.69640 -0.10600
C 	C 	0.52120 0.66250 0.70230 0.04300
C 	C 	0.48570 0.62100 0.77540 -0.13300
C 	C 	0.57910 0.57080 0.84370 0.08900
C 	C 	0.70950 0.56130 0.83590 -0.14900
C 	C 	0.74700 0.60210 0.76330 0.04800
C 	C 	0.54020 0.53150 0.92430 -0.07300
C 	C 	0.55340 0.42680 0.95000 0.20900
C 	C 	0.60540 0.34320 0.89900 -0.71900
C 	C 	0.48750 0.60290 0.97450 -0.16000
C 	C 	0.46700 0.09860 0.65250 0.11400
C 	C 	0.31330 0.98340 0.61200 -0.00000
C 	C 	0.40330 0.94050 0.68150 0.00200
C 	C 	0.62490 0.00460 0.77570 0.10200
C 	C 	0.68860 0.09180 0.81790 -0.09100
C 	C 	0.80030 0.08010 0.88980 -0.06200
C 	C 	0.84940 0.98250 0.91400 0.08200
C 	C 	0.78580 0.89750 0.87320 -0.06200
C 	C 	0.67320 0.90750 0.80380 -0.08700
C 	C 	0.19670 0.29660 0.62050 0.31100
C 	C 	0.15460 0.34620 0.69640 -0.10500
C 	C 	0.02120 0.33750 0.70230 0.04000
C 	C 	0.98570 0.37900 0.77540 -0.13100
C 	C 	0.07910 0.42920 0.84370 0.08700
C 	C 	0.20950 0.43870 0.83590 -0.14800
C 	C 	0.24700 0.39790 0.76330 0.04700
C 	C 	0.04020 0.46850 0.92430 -0.07300
C 	C 	0.05340 0.57320 0.95000 0.20700
C 	C 	0.10540 0.65680 0.89900 -0.71700
C 	C 	0.98750 0.39710 0.97450 -0.15800
C 	C 	0.03300 0.09860 0.34750 0.11500
C 	C 	0.18670 0.98340 0.38800 -0.00000
C 	C 	0.09670 0.94050 0.31850 0.00300
C 	C 	0.87510 0.00460 0.22430 0.10200
C 	C 	0.81140 0.09180 0.18210 -0.09100
C 	C 	0.69970 0.08010 0.11020 -0.06200
C 	C 	0.65060 0.98250 0.08600 0.08100
C 	C 	0.71420 0.89750 0.12680 -0.06200
C 	C 	0.82680 0.90750 0.19620 -0.08700
C 	C 	0.30330 0.29660 0.37950 0.31100
C 	C 	0.34540 0.34620 0.30360 -0.10600
C 	C 	0.47880 0.33750 0.29770 0.04300
C 	C 	0.51430 0.37900 0.22460 -0.13300
C 	C 	0.42090 0.42920 0.15630 0.08900
C 	C 	0.29050 0.43870 0.16410 -0.14900
C 	C 	0.25300 0.39790 0.23670 0.04800
C 	C 	0.45980 0.46850 0.07570 -0.07300
C 	C 	0.44660 0.57320 0.05000 0.20900
C 	C 	0.39460 0.65680 0.10100 -0.71900
C 	C 	0.51250 0.39710 0.02550 -0.16000
N 	N 	0.64220 0.91810 0.40960 -0.25100
N 	N 	0.49060 0.98430 0.29660 -0.14100
N 	N 	0.02720 0.04010 0.01580 -0.08700
N 	N 	0.85780 0.91810 0.59040 -0.25100
N 	N 	0.00940 0.98430 0.70340 -0.14200
N 	N 	0.47280 0.04010 0.98420 -0.08800
N 	N 	0.35780 0.08190 0.59040 -0.25100
N 	N 	0.50940 0.01570 0.70340 -0.14100
N 	N 	0.97280 0.95990 0.98420 -0.08700
N 	N 	0.14220 0.08190 0.40960 -0.25100
N 	N 	0.99060 0.01570 0.29660 -0.14200
N 	N 	0.52720 0.95990 0.01580 -0.08800
O 	O 	0.68760 0.69050 0.38840 -0.36000
O 	O 	0.88580 0.76170 0.43306 -0.41200
O 	O 	0.81240 0.69050 0.61160 -0.36000
O 	O 	0.61420 0.76170 0.56694 -0.41200
O 	O 	0.31240 0.30950 0.61160 -0.36000
O 	O 	0.11420 0.23830 0.56694 -0.41200
O 	O 	0.18760 0.30950 0.38840 -0.36000
O 	O 	0.38580 0.23830 0.43306 -0.41200
