data_crystal

_cell_length_a 10.14300
_cell_length_b 12.70900
_cell_length_c 16.79500
_cell_angle_alpha 90.00000
_cell_angle_beta  107.03600
_cell_angle_gamma 90.00000

_symmetry_space_group_name_	'P 1'
_symmetry_space_group_name_H-M	'P 1'

loop_
_symmetry_equiv_pos_as_xyz
  x,y,z

loop_
_atom_site_label
_atom_site_type_symbol
_atom_site_fract_x
_atom_site_fract_y
_atom_site_fract_z
_atom_site_charge
Ca	Ca	0.93138 0.23201 0.71281 1.51200
Ca	Ca	0.06862 0.73201 0.78719 1.51200
Ca	Ca	0.06862 0.76799 0.28719 1.51200
Ca	Ca	0.93138 0.26799 0.21281 1.51100
H 	H 	0.26910 0.32520 0.78110 0.01900
H 	H 	0.45780 0.41550 0.76660 0.09100
H 	H 	0.66640 0.32730 0.78560 -0.01000
H 	H 	0.49830 0.06400 0.84360 0.02700
H 	H 	0.80380 0.64150 0.85830 -0.00400
H 	H 	0.74570 0.47820 0.89900 0.08900
H 	H 	0.80560 0.43450 0.03800 -0.03000
H 	H 	0.98020 0.71670 0.09790 0.01000
H 	H 	0.73090 0.82520 0.71890 0.02100
H 	H 	0.54220 0.91550 0.73340 0.09200
H 	H 	0.33360 0.82730 0.71440 -0.01000
H 	H 	0.50170 0.56400 0.65640 0.02800
H 	H 	0.19620 0.14150 0.64170 -0.00700
H 	H 	0.25430 0.97820 0.60100 0.09500
H 	H 	0.19440 0.93450 0.46200 -0.02800
H 	H 	0.01980 0.21670 0.40210 0.00900
H 	H 	0.73090 0.67480 0.21890 0.02000
H 	H 	0.54220 0.58450 0.23340 0.09000
H 	H 	0.33360 0.67270 0.21440 -0.00900
H 	H 	0.50170 0.93600 0.15640 0.03000
H 	H 	0.19620 0.35850 0.14170 -0.00400
H 	H 	0.25430 0.52180 0.10100 0.09000
H 	H 	0.19440 0.56550 0.96200 -0.03000
H 	H 	0.01980 0.28330 0.90210 0.01000
H 	H 	0.26910 0.17480 0.28110 0.02000
H 	H 	0.45780 0.08450 0.26660 0.08800
H 	H 	0.66640 0.17270 0.28560 -0.01000
H 	H 	0.49830 0.43600 0.34360 0.02900
H 	H 	0.80380 0.85850 0.35830 0.00900
H 	H 	0.74570 0.02180 0.39900 0.06400
H 	H 	0.80560 0.06550 0.53800 -0.01300
H 	H 	0.98020 0.78330 0.59790 0.01700
C 	C 	0.24680 0.12910 0.83410 0.38200
C 	C 	0.73490 0.12890 0.82760 0.35300
C 	C 	0.36650 0.18670 0.81760 -0.14800
C 	C 	0.35370 0.29130 0.79160 0.07300
C 	C 	0.46540 0.34480 0.78130 -0.13900
C 	C 	0.59090 0.29170 0.79310 0.06800
C 	C 	0.60320 0.18770 0.81560 -0.15400
C 	C 	0.49030 0.13450 0.82820 0.07700
C 	C 	0.94320 0.80080 0.94740 0.36400
C 	C 	0.94510 0.53930 0.17300 0.44900
C 	C 	0.89970 0.69480 0.97320 -0.15800
C 	C 	0.82860 0.62390 0.91450 0.08300
C 	C 	0.79370 0.52610 0.93880 -0.16900
C 	C 	0.83000 0.50000 0.02190 0.11700
C 	C 	0.90240 0.57010 0.08180 -0.20300
C 	C 	0.93490 0.66810 0.05780 0.10800
C 	C 	0.75320 0.62910 0.66590 0.38100
C 	C 	0.26510 0.62890 0.67240 0.35200
C 	C 	0.63350 0.68670 0.68240 -0.14700
C 	C 	0.64630 0.79130 0.70840 0.07200
C 	C 	0.53460 0.84480 0.71870 -0.13800
C 	C 	0.40910 0.79170 0.70690 0.06800
C 	C 	0.39680 0.68770 0.68440 -0.15300
C 	C 	0.50970 0.63450 0.67180 0.07700
C 	C 	0.05680 0.30080 0.55260 0.36600
C 	C 	0.05490 0.03930 0.32700 0.45200
C 	C 	0.10030 0.19480 0.52680 -0.16500
C 	C 	0.17140 0.12390 0.58550 0.09200
C 	C 	0.20630 0.02610 0.56120 -0.18300
C 	C 	0.17000 0.00000 0.47810 0.11900
C 	C 	0.09760 0.07010 0.41820 -0.20700
C 	C 	0.06510 0.16810 0.44220 0.11500
C 	C 	0.75320 0.87090 0.16590 0.38100
C 	C 	0.26510 0.87110 0.17240 0.35200
C 	C 	0.63350 0.81330 0.18240 -0.14600
C 	C 	0.64630 0.70870 0.20840 0.07100
C 	C 	0.53460 0.65520 0.21870 -0.13700
C 	C 	0.40910 0.70830 0.20690 0.06700
C 	C 	0.39680 0.81230 0.18440 -0.15100
C 	C 	0.50970 0.86550 0.17180 0.07600
C 	C 	0.05680 0.19920 0.05260 0.36400
C 	C 	0.05490 0.46070 0.82700 0.45000
C 	C 	0.10030 0.30520 0.02680 -0.15900
C 	C 	0.17140 0.37610 0.08550 0.08400
C 	C 	0.20630 0.47390 0.06120 -0.17000
C 	C 	0.17000 0.50000 0.97810 0.11800
C 	C 	0.09760 0.42990 0.91820 -0.20400
C 	C 	0.06510 0.33190 0.94220 0.10900
C 	C 	0.24680 0.37090 0.33410 0.38100
C 	C 	0.73490 0.37110 0.32760 0.35200
C 	C 	0.36650 0.31330 0.31760 -0.14700
C 	C 	0.35370 0.20870 0.29160 0.07100
C 	C 	0.46540 0.15520 0.28130 -0.13700
C 	C 	0.59090 0.20830 0.29310 0.06700
C 	C 	0.60320 0.31230 0.31560 -0.15200
C 	C 	0.49030 0.36550 0.32820 0.07600
C 	C 	0.94320 0.69920 0.44740 0.35800
C 	C 	0.94510 0.96070 0.67300 0.45400
C 	C 	0.89970 0.80520 0.47320 -0.13900
C 	C 	0.82860 0.87610 0.41450 0.04900
C 	C 	0.79370 0.97390 0.43880 -0.11200
C 	C 	0.83000 0.00000 0.52190 0.06500
C 	C 	0.90240 0.92990 0.58180 -0.17500
C 	C 	0.93490 0.83190 0.55780 0.08900
O 	O 	0.26930 0.04550 0.87350 -0.25600
O 	O 	0.12930 0.16990 0.80920 -0.40600
O 	O 	0.74490 0.03510 0.84940 -0.22800
O 	O 	0.83640 0.17920 0.81520 -0.40700
O 	O 	0.95650 0.80430 0.87490 -0.42100
O 	O 	0.96510 0.87590 0.99630 -0.20100
O 	O 	0.91230 0.44930 0.19080 -0.45100
O 	O 	0.01180 0.60350 0.22690 -0.44200
O 	O 	0.73070 0.54550 0.62650 -0.25400
O 	O 	0.87070 0.66990 0.69080 -0.40500
O 	O 	0.25510 0.53510 0.65060 -0.22500
O 	O 	0.16360 0.67920 0.68480 -0.40700
O 	O 	0.04350 0.30430 0.62510 -0.42300
O 	O 	0.03490 0.37590 0.50370 -0.20400
O 	O 	0.08770 0.94930 0.30920 -0.44900
O 	O 	0.98820 0.10350 0.27310 -0.44900
O 	O 	0.73070 0.95450 0.12650 -0.25100
O 	O 	0.87070 0.83010 0.19080 -0.40500
O 	O 	0.25510 0.96490 0.15060 -0.22300
O 	O 	0.16360 0.82080 0.18480 -0.40600
O 	O 	0.04350 0.19570 0.12510 -0.42200
O 	O 	0.03490 0.12410 0.00370 -0.20400
O 	O 	0.08770 0.55070 0.80920 -0.45100
O 	O 	0.98820 0.39650 0.77310 -0.44300
O 	O 	0.26930 0.45450 0.37350 -0.25400
O 	O 	0.12930 0.33010 0.30920 -0.40500
O 	O 	0.74490 0.46490 0.34940 -0.22500
O 	O 	0.83640 0.32080 0.31520 -0.40700
O 	O 	0.95650 0.69570 0.37490 -0.42100
O 	O 	0.96510 0.62410 0.49630 -0.20200
O 	O 	0.91230 0.05070 0.69080 -0.45600
O 	O 	0.01180 0.89650 0.72690 -0.44600
