data_crystal

_cell_length_a 9.78100
_cell_length_b 11.90500
_cell_length_c 15.22000
_cell_angle_alpha 96.50000
_cell_angle_beta  99.07000
_cell_angle_gamma 112.41000

_symmetry_space_group_name_	'P 1'
_symmetry_space_group_name_H-M	'P 1'

loop_
_symmetry_equiv_pos_as_xyz
  x,y,z

loop_
_atom_site_label
_atom_site_type_symbol
_atom_site_fract_x
_atom_site_fract_y
_atom_site_fract_z
_atom_site_charge
Zn	Zn	0.98873 0.57029 0.29485 1.19600
Zn	Zn	0.89069 0.68827 0.67022 1.19900
Zn	Zn	0.43913 0.60484 0.07046 1.18700
Zn	Zn	0.01127 0.42971 0.70515 1.19500
Zn	Zn	0.10931 0.31173 0.32978 1.19800
Zn	Zn	0.56087 0.39516 0.92954 1.18600
Zn	Zn	0.50000 0.50000 0.50000 1.15100
H 	H 	0.30800 0.99870 0.82360 0.04100
H 	H 	0.72310 0.03960 0.94250 0.03300
H 	H 	0.65630 0.83180 0.89580 0.05900
H 	H 	0.42030 0.70810 0.80550 0.01700
H 	H 	0.80400 0.01140 0.66510 0.03800
H 	H 	0.46050 0.11390 0.60030 0.01200
H 	H 	0.29150 0.91110 0.57720 0.07400
H 	H 	0.37700 0.75560 0.58950 0.01700
H 	H 	0.17250 0.63310 0.14620 -0.02300
H 	H 	0.34800 0.40300 0.20370 -0.04500
H 	H 	0.07140 0.67840 0.51400 -0.03000
H 	H 	0.68740 0.46190 0.35740 -0.02400
H 	H 	0.70850 0.65040 0.23540 -0.04400
H 	H 	0.82850 0.43050 0.09110 -0.02500
H 	H 	0.69200 0.00130 0.17640 0.04100
H 	H 	0.27690 0.96040 0.05750 0.03300
H 	H 	0.34370 0.16820 0.10420 0.05900
H 	H 	0.57970 0.29190 0.19450 0.01700
H 	H 	0.19600 0.98860 0.33490 0.03800
H 	H 	0.53950 0.88610 0.39970 0.01200
H 	H 	0.70850 0.08890 0.42280 0.07400
H 	H 	0.62300 0.24440 0.41050 0.01700
H 	H 	0.82750 0.36690 0.85380 -0.02300
H 	H 	0.65200 0.59700 0.79630 -0.04500
H 	H 	0.92860 0.32160 0.48600 -0.03000
H 	H 	0.31260 0.53810 0.64260 -0.02400
H 	H 	0.29150 0.34960 0.76460 -0.04400
H 	H 	0.17150 0.56950 0.90890 -0.02500
C 	C 	0.33960 0.84070 0.80610 -0.12800
C 	C 	0.37900 0.96550 0.83710 0.06000
C 	C 	0.52200 0.04090 0.88770 -0.11400
C 	C 	0.62620 0.98970 0.90870 0.04200
C 	C 	0.58690 0.86580 0.87980 -0.11100
C 	C 	0.44490 0.79130 0.82690 0.04800
C 	C 	0.18710 0.76100 0.74790 0.37300
C 	C 	0.56450 0.17540 0.91660 0.34000
C 	C 	0.60010 0.86850 0.62810 -0.15100
C 	C 	0.70110 0.99100 0.64540 0.06400
C 	C 	0.65150 0.08430 0.63410 -0.12300
C 	C 	0.49580 0.05260 0.60780 0.05500
C 	C 	0.39500 0.93120 0.59300 -0.11900
C 	C 	0.44580 0.83790 0.60150 0.06400
C 	C 	0.65750 0.76950 0.63690 0.39600
C 	C 	0.76160 0.21510 0.64590 0.33600
C 	C 	0.19310 0.57210 0.17120 0.10500
C 	C 	0.28810 0.44780 0.20240 0.10500
C 	C 	0.96850 0.62990 0.49230 0.10700
C 	C 	0.76080 0.51340 0.40780 0.09600
C 	C 	0.71160 0.59590 0.18770 0.11100
C 	C 	0.77640 0.47660 0.10960 0.10600
C 	C 	0.66040 0.15930 0.19390 -0.12800
C 	C 	0.62100 0.03450 0.16290 0.06000
C 	C 	0.47800 0.95910 0.11230 -0.11400
C 	C 	0.37380 0.01030 0.09130 0.04200
C 	C 	0.41310 0.13420 0.12020 -0.11100
C 	C 	0.55510 0.20870 0.17310 0.04800
C 	C 	0.81290 0.23900 0.25210 0.37300
C 	C 	0.43550 0.82460 0.08340 0.34000
C 	C 	0.39990 0.13150 0.37190 -0.15100
C 	C 	0.29890 0.00900 0.35460 0.06400
C 	C 	0.34850 0.91570 0.36590 -0.12300
C 	C 	0.50420 0.94740 0.39220 0.05500
C 	C 	0.60500 0.06880 0.40700 -0.11900
C 	C 	0.55420 0.16210 0.39850 0.06400
C 	C 	0.34250 0.23050 0.36310 0.39600
C 	C 	0.23840 0.78490 0.35410 0.33600
C 	C 	0.80690 0.42790 0.82880 0.10500
C 	C 	0.71190 0.55220 0.79760 0.10500
C 	C 	0.03150 0.37010 0.50770 0.10700
C 	C 	0.23920 0.48660 0.59220 0.09600
C 	C 	0.28840 0.40410 0.81230 0.11100
C 	C 	0.22360 0.52340 0.89040 0.10600
N 	N 	0.18340 0.43210 0.24970 -0.26400
N 	N 	0.12120 0.51390 0.22850 -0.24700
N 	N 	0.29990 0.53470 0.15210 -0.29600
N 	N 	0.86680 0.61470 0.54180 -0.26800
N 	N 	0.72990 0.53910 0.48570 -0.24300
N 	N 	0.90750 0.56770 0.40720 -0.28600
N 	N 	0.81610 0.54920 0.19110 -0.27300
N 	N 	0.65500 0.47770 0.05820 -0.26500
N 	N 	0.61210 0.55570 0.10840 -0.26200
N 	N 	0.81660 0.56790 0.75030 -0.26400
N 	N 	0.87880 0.48610 0.77150 -0.24700
N 	N 	0.70010 0.46530 0.84790 -0.29600
N 	N 	0.13320 0.38530 0.45820 -0.26800
N 	N 	0.27010 0.46090 0.51430 -0.24300
N 	N 	0.09250 0.43230 0.59280 -0.28600
N 	N 	0.18390 0.45080 0.80890 -0.27300
N 	N 	0.34500 0.52230 0.94180 -0.26500
N 	N 	0.38790 0.44430 0.89160 -0.26200
O 	O 	0.15380 0.65120 0.71820 -0.45100
O 	O 	0.09400 0.81200 0.73040 -0.45800
O 	O 	0.46310 0.21590 0.89430 -0.47100
O 	O 	0.69410 0.24540 0.95740 -0.34600
O 	O 	0.57090 0.65820 0.61480 -0.50400
O 	O 	0.79850 0.80700 0.66870 -0.48400
O 	O 	0.89300 0.24490 0.69580 -0.43600
O 	O 	0.72760 0.29040 0.60790 -0.36400
O 	O 	0.84620 0.34880 0.28180 -0.45100
O 	O 	0.90600 0.18800 0.26960 -0.45800
O 	O 	0.53690 0.78410 0.10570 -0.47100
O 	O 	0.30590 0.75460 0.04260 -0.34600
O 	O 	0.42910 0.34180 0.38520 -0.50400
O 	O 	0.20150 0.19300 0.33130 -0.48400
O 	O 	0.10700 0.75510 0.30420 -0.43600
O 	O 	0.27240 0.70960 0.39210 -0.36400
