data_crystal

_cell_length_a 5.57610
_cell_length_b 11.83010
_cell_length_c 22.79220
_cell_angle_alpha 100.49300
_cell_angle_beta  90.00000
_cell_angle_gamma 90.00000

_symmetry_space_group_name_	'P 1'
_symmetry_space_group_name_H-M	'P 1'

loop_
_symmetry_equiv_pos_as_xyz
  x,y,z

loop_
_atom_site_label
_atom_site_type_symbol
_atom_site_fract_x
_atom_site_fract_y
_atom_site_fract_z
_atom_site_charge
Ca	Ca	0.25638 0.86341 0.77716 1.51800
Ca	Ca	0.75638 0.63659 0.72284 1.51800
Ca	Ca	0.74362 0.13659 0.22284 1.51700
Ca	Ca	0.24362 0.36341 0.27716 1.51700
H 	H 	0.62470 0.26760 0.09410 0.01900
H 	H 	0.70630 0.22500 0.99250 0.07100
H 	H 	0.05530 0.07910 0.96270 0.09100
H 	H 	0.97140 0.12680 0.06400 0.02000
H 	H 	0.97810 0.31610 0.78060 0.02600
H 	H 	0.06370 0.16150 0.82710 0.08300
H 	H 	0.69870 0.30650 0.88170 0.07100
H 	H 	0.61870 0.45640 0.83100 0.01500
H 	H 	0.12470 0.23240 0.40590 0.02000
H 	H 	0.20630 0.27500 0.50750 0.07000
H 	H 	0.55530 0.42090 0.53730 0.08900
H 	H 	0.47140 0.37320 0.43600 0.02400
H 	H 	0.47810 0.18390 0.71940 0.03000
H 	H 	0.56370 0.33850 0.67290 0.08000
H 	H 	0.19870 0.19350 0.61830 0.07000
H 	H 	0.11870 0.04360 0.66900 0.01500
H 	H 	0.37530 0.73240 0.90590 0.01900
H 	H 	0.29370 0.77500 0.00750 0.07100
H 	H 	0.94470 0.92090 0.03730 0.09100
H 	H 	0.02860 0.87320 0.93600 0.02000
H 	H 	0.02190 0.68390 0.21940 0.02600
H 	H 	0.93630 0.83850 0.17290 0.08300
H 	H 	0.30130 0.69350 0.11830 0.07100
H 	H 	0.38130 0.54360 0.16900 0.01500
H 	H 	0.87530 0.76760 0.59410 0.02000
H 	H 	0.79370 0.72500 0.49250 0.07000
H 	H 	0.44470 0.57910 0.46270 0.08900
H 	H 	0.52860 0.62680 0.56400 0.02400
H 	H 	0.52190 0.81610 0.28060 0.03000
H 	H 	0.43630 0.66150 0.32710 0.08000
H 	H 	0.80130 0.80650 0.38170 0.07000
H 	H 	0.88130 0.95640 0.33100 0.01500
C 	C 	0.23880 0.22297 0.15511 0.41600
C 	C 	0.29260 0.19845 0.08926 -0.14400
C 	C 	0.51120 0.22940 0.06784 0.04700
C 	C 	0.56090 0.20350 0.00712 -0.09300
C 	C 	0.39080 0.14520 0.96866 0.01600
C 	C 	0.16930 0.11650 0.98913 -0.10300
C 	C 	0.12050 0.14440 0.04971 0.06000
C 	C 	0.24130 0.49560 0.76542 0.44700
C 	C 	0.29240 0.40045 0.80037 -0.14500
C 	C 	0.12420 0.31280 0.79992 0.05300
C 	C 	0.17360 0.22090 0.82817 -0.09900
C 	C 	0.38960 0.21937 0.85797 0.00400
C 	C 	0.55660 0.30770 0.86044 -0.09200
C 	C 	0.50720 0.39780 0.83062 0.04700
C 	C 	0.73880 0.27703 0.34489 0.41500
C 	C 	0.79260 0.30155 0.41074 -0.14100
C 	C 	0.01120 0.27060 0.43216 0.04400
C 	C 	0.06090 0.29650 0.49288 -0.08800
C 	C 	0.89080 0.35480 0.53134 0.01300
C 	C 	0.66930 0.38350 0.51087 -0.09800
C 	C 	0.62050 0.35560 0.45029 0.05300
C 	C 	0.74130 0.00440 0.73458 0.44300
C 	C 	0.79240 0.09955 0.69963 -0.14500
C 	C 	0.62420 0.18720 0.70008 0.04500
C 	C 	0.67360 0.27910 0.67183 -0.09400
C 	C 	0.88960 0.28063 0.64203 -0.00100
C 	C 	0.05660 0.19230 0.63956 -0.08700
C 	C 	0.00720 0.10220 0.66938 0.04900
C 	C 	0.76120 0.77703 0.84489 0.41600
C 	C 	0.70740 0.80155 0.91074 -0.14400
C 	C 	0.48880 0.77060 0.93216 0.04700
C 	C 	0.43910 0.79650 0.99288 -0.09300
C 	C 	0.60920 0.85480 0.03134 0.01600
C 	C 	0.83070 0.88350 0.01087 -0.10300
C 	C 	0.87950 0.85560 0.95029 0.06000
C 	C 	0.75870 0.50440 0.23458 0.44700
C 	C 	0.70760 0.59955 0.19963 -0.14500
C 	C 	0.87580 0.68720 0.20008 0.05300
C 	C 	0.82640 0.77910 0.17183 -0.09900
C 	C 	0.61040 0.78063 0.14203 0.00400
C 	C 	0.44340 0.69230 0.13956 -0.09200
C 	C 	0.49280 0.60220 0.16938 0.04700
C 	C 	0.26120 0.72297 0.65511 0.41500
C 	C 	0.20740 0.69845 0.58926 -0.14100
C 	C 	0.98880 0.72940 0.56784 0.04400
C 	C 	0.93910 0.70350 0.50712 -0.08800
C 	C 	0.10920 0.64520 0.46866 0.01300
C 	C 	0.33070 0.61650 0.48913 -0.09800
C 	C 	0.37950 0.64440 0.54971 0.05300
C 	C 	0.25870 0.99560 0.26542 0.44300
C 	C 	0.20760 0.90045 0.30037 -0.14500
C 	C 	0.37580 0.81280 0.29992 0.04500
C 	C 	0.32640 0.72090 0.32817 -0.09400
C 	C 	0.11040 0.71937 0.35797 -0.00100
C 	C 	0.94340 0.80770 0.36044 -0.08700
C 	C 	0.99280 0.89780 0.33062 0.04900
S 	S 	0.46382 0.10211 0.89229 0.29400
S 	S 	0.96382 0.39789 0.60771 0.29400
S 	S 	0.53618 0.89789 0.10771 0.29400
S 	S 	0.03618 0.60211 0.39229 0.29400
O 	O 	0.41440 0.23728 0.19073 -0.57400
O 	O 	0.02490 0.23181 0.17169 -0.50800
O 	O 	0.02550 0.51599 0.75668 -0.46600
O 	O 	0.41920 0.54325 0.74735 -0.48000
O 	O 	0.30550 0.00697 0.86877 -0.35300
O 	O 	0.71890 0.08508 0.88821 -0.24000
O 	O 	0.91440 0.26272 0.30927 -0.57400
O 	O 	0.52490 0.26819 0.32831 -0.50800
O 	O 	0.52550 0.98401 0.74332 -0.46600
O 	O 	0.91920 0.95675 0.75265 -0.47800
O 	O 	0.80550 0.49303 0.63123 -0.35400
O 	O 	0.21890 0.41492 0.61179 -0.23800
O 	O 	0.58560 0.76272 0.80927 -0.57400
O 	O 	0.97510 0.76819 0.82831 -0.50800
O 	O 	0.97450 0.48401 0.24332 -0.46600
O 	O 	0.58080 0.45675 0.25265 -0.48000
O 	O 	0.69450 0.99303 0.13123 -0.35300
O 	O 	0.28110 0.91492 0.11179 -0.24000
O 	O 	0.08560 0.73728 0.69073 -0.57400
O 	O 	0.47510 0.73181 0.67169 -0.50800
O 	O 	0.47450 0.01599 0.25668 -0.46600
O 	O 	0.08080 0.04325 0.24735 -0.47800
O 	O 	0.19450 0.50697 0.36877 -0.35400
O 	O 	0.78110 0.58508 0.38821 -0.23800
