data_crystal

_cell_length_a 6.81190
_cell_length_b 7.31830
_cell_length_c 13.78460
_cell_angle_alpha 90.00000
_cell_angle_beta  90.00000
_cell_angle_gamma 90.00000

_symmetry_space_group_name_	'P 1'
_symmetry_space_group_name_H-M	'P 1'

loop_
_symmetry_equiv_pos_as_xyz
  x,y,z

loop_
_atom_site_label
_atom_site_type_symbol
_atom_site_fract_x
_atom_site_fract_y
_atom_site_fract_z
_atom_site_charge
Zn	Zn	0.75000 0.18263 0.58624 1.02800
Zn	Zn	0.25000 0.31737 0.08624 0.96700
Zn	Zn	0.25000 0.81737 0.41376 1.06700
Zn	Zn	0.75000 0.68263 0.91376 1.13500
Zn	Zn	0.00000 0.50000 0.50000 1.07200
Zn	Zn	-0.00000 0.00000 -0.00000 0.92800
Zn	Zn	0.50000 0.50000 0.50000 1.10700
Zn	Zn	0.50000 0.00000 -0.00000 0.96400
H 	H 	0.03860 0.13790 0.76680 -0.29300
H 	H 	0.96140 0.36210 0.26680 -0.01800
H 	H 	0.53860 0.86210 0.23320 -0.11000
H 	H 	0.46140 0.63790 0.73320 -0.11000
H 	H 	0.96140 0.86210 0.23320 0.03100
H 	H 	0.03860 0.63790 0.73320 -0.24500
H 	H 	0.46140 0.13790 0.76680 -0.15700
H 	H 	0.53860 0.36210 0.26680 -0.16300
H 	H 	0.75000 0.29100 0.43100 0.40700
H 	H 	0.25000 0.20900 0.93100 0.41700
H 	H 	0.25000 0.70900 0.56900 0.47100
H 	H 	0.75000 0.79100 0.06900 0.42100
C 	C 	0.90580 0.12720 0.78702 0.19900
C 	C 	0.09420 0.37280 0.28702 -0.21800
C 	C 	0.40580 0.87280 0.21298 0.04800
C 	C 	0.59420 0.62720 0.71298 0.04600
C 	C 	0.09420 0.87280 0.21298 -0.16100
C 	C 	0.90580 0.62720 0.71298 0.24600
C 	C 	0.59420 0.12720 0.78702 -0.00500
C 	C 	0.40580 0.37280 0.28702 -0.00400
N 	N 	0.85130 0.08050 0.87540 -0.32200
N 	N 	0.14870 0.41950 0.37540 -0.32800
N 	N 	0.35130 0.91950 0.12460 -0.30600
N 	N 	0.64870 0.58050 0.62460 -0.32500
N 	N 	0.14870 0.91950 0.12460 -0.29000
N 	N 	0.85130 0.58050 0.62460 -0.33200
N 	N 	0.64870 0.08050 0.87540 -0.31400
N 	N 	0.35130 0.41950 0.37540 -0.34500
N 	N 	0.75000 0.15800 0.72866 -0.41300
N 	N 	0.25000 0.34200 0.22866 -0.38500
N 	N 	0.25000 0.84200 0.27134 -0.32800
N 	N 	0.75000 0.65800 0.77134 -0.35200
O 	O 	0.75000 0.35110 0.47354 -1.27200
O 	O 	0.25000 0.14890 0.97354 -1.19100
O 	O 	0.25000 0.64890 0.52646 -1.32500
O 	O 	0.75000 0.85110 0.02646 -1.24200
