data_crystal

_cell_length_a 6.91830
_cell_length_b 15.48870
_cell_length_c 15.48870
_cell_angle_alpha 87.14100
_cell_angle_beta  77.09510
_cell_angle_gamma 77.09510

_symmetry_space_group_name_	'P 1'
_symmetry_space_group_name_H-M	'P 1'

loop_
_symmetry_equiv_pos_as_xyz
  x,y,z

loop_
_atom_site_label
_atom_site_type_symbol
_atom_site_fract_x
_atom_site_fract_y
_atom_site_fract_z
_atom_site_charge
Zn	Zn	0.12500 0.76077 0.73923 1.20200
Zn	Zn	0.62500 0.23923 0.26077 1.21200
Zn	Zn	0.13577 0.73923 0.23923 1.20500
Zn	Zn	0.11423 0.26077 0.76077 1.20000
H 	H 	0.57380 0.73750 0.15250 0.01200
H 	H 	0.77660 0.74740 0.01120 0.11300
H 	H 	0.63690 0.75210 0.88750 0.03100
H 	H 	0.09720 0.74550 0.05090 -0.01400
H 	H 	0.46380 0.26250 0.84750 0.01100
H 	H 	0.53520 0.25260 0.98880 0.09700
H 	H 	0.27650 0.24790 0.11250 0.02400
H 	H 	0.89360 0.25450 0.94910 0.05000
H 	H 	0.27370 0.15250 0.26250 -0.00100
H 	H 	0.21220 0.01120 0.25260 0.09100
H 	H 	0.47560 0.88750 0.24790 0.02600
H 	H 	0.85190 0.05090 0.25450 0.01100
H 	H 	0.68870 0.84750 0.73750 0.02000
H 	H 	0.47600 0.98880 0.74740 0.08000
H 	H 	0.61100 0.11250 0.75210 0.04800
H 	H 	0.15730 0.94910 0.74550 0.03100
H 	H 	0.78620 0.65250 0.23750 -0.01100
H 	H 	0.71480 0.51120 0.24740 0.12500
H 	H 	0.97350 0.38750 0.25210 0.00400
H 	H 	0.35640 0.55090 0.24550 -0.01200
H 	H 	0.67620 0.34750 0.76250 0.02600
H 	H 	0.47340 0.48880 0.75260 0.06500
H 	H 	0.61310 0.61250 0.74790 0.06800
H 	H 	0.15280 0.44910 0.75450 0.05000
H 	H 	0.56130 0.76250 0.65250 0.01000
H 	H 	0.77400 0.75260 0.51120 0.11100
H 	H 	0.63900 0.74790 0.38750 0.03400
H 	H 	0.09270 0.75450 0.55090 -0.01600
H 	H 	0.97630 0.23750 0.34750 0.04700
H 	H 	0.03780 0.24740 0.48880 0.02000
H 	H 	0.77440 0.25210 0.61250 0.06300
H 	H 	0.39810 0.24550 0.44910 0.00300
C 	C 	0.51430 0.74170 0.10250 0.08100
C 	C 	0.63710 0.74670 0.01790 -0.14100
C 	C 	0.55450 0.75040 0.94520 0.08200
C 	C 	0.34800 0.75170 0.95630 -0.12900
C 	C 	0.23700 0.74650 0.04250 0.07900
C 	C 	0.24730 0.75810 0.88090 0.32700
C 	C 	0.35850 0.25830 0.89750 0.07100
C 	C 	0.40170 0.25330 0.98210 -0.12500
C 	C 	0.25010 0.24960 0.05480 0.06600
C 	C 	0.05600 0.24830 0.04370 -0.14900
C 	C 	0.02600 0.25350 0.95750 0.01300
C 	C 	0.88630 0.24190 0.11910 0.35900
C 	C 	0.38320 0.10250 0.25830 0.07900
C 	C 	0.34500 0.01790 0.25330 -0.14700
C 	C 	0.50030 0.94520 0.24960 0.08400
C 	C 	0.69570 0.95630 0.24830 -0.13000
C 	C 	0.72050 0.04250 0.25350 0.08100
C 	C 	0.87180 0.88090 0.24190 0.37800
C 	C 	0.74400 0.89750 0.74170 0.05500
C 	C 	0.61620 0.98210 0.74670 -0.07900
C 	C 	0.69510 0.05480 0.75040 0.01300
C 	C 	0.90030 0.04370 0.75170 -0.04900
C 	C 	0.01650 0.95750 0.74650 -0.03300
C 	C 	0.99460 0.11910 0.75810 0.35400
C 	C 	0.89150 0.60250 0.24170 0.16200
C 	C 	0.84830 0.51790 0.24670 -0.20500
C 	C 	0.99990 0.44520 0.25040 0.18300
C 	C 	0.19400 0.45630 0.25170 -0.21000
C 	C 	0.22400 0.54250 0.24650 0.11100
C 	C 	0.36370 0.38090 0.25810 0.34900
C 	C 	0.73570 0.39750 0.75830 0.03400
C 	C 	0.61290 0.48210 0.75330 -0.04900
C 	C 	0.69550 0.55480 0.74960 -0.04100
C 	C 	0.90200 0.54370 0.74830 0.06100
C 	C 	0.01300 0.45750 0.75350 -0.08900
C 	C 	0.00270 0.61910 0.74190 0.17300
C 	C 	0.50600 0.75830 0.60250 0.07900
C 	C 	0.63380 0.75330 0.51790 -0.13400
C 	C 	0.55490 0.74960 0.44520 0.07400
C 	C 	0.34970 0.74830 0.45630 -0.13000
C 	C 	0.23350 0.75350 0.54250 0.08300
C 	C 	0.25540 0.74190 0.38090 0.32700
C 	C 	0.86680 0.24170 0.39750 0.01600
C 	C 	0.90500 0.24670 0.48210 0.00700
C 	C 	0.74970 0.25040 0.55480 -0.00500
C 	C 	0.55430 0.25170 0.54370 -0.09100
C 	C 	0.52950 0.24650 0.45750 0.06200
C 	C 	0.37820 0.25810 0.61910 0.31200
N 	N 	0.31670 0.74270 0.11470 -0.26300
N 	N 	0.17410 0.25730 0.88530 -0.25300
N 	N 	0.56860 0.11470 0.25730 -0.25900
N 	N 	0.94060 0.88530 0.74270 -0.20700
N 	N 	0.07590 0.61470 0.24270 -0.30100
N 	N 	0.93330 0.38530 0.75730 -0.19500
N 	N 	0.30940 0.75730 0.61470 -0.26400
N 	N 	0.68140 0.24270 0.38530 -0.24300
O 	O 	0.34689 0.77161 0.80441 -0.42300
O 	O 	0.06567 0.75087 0.89399 -0.38100
O 	O 	0.92291 0.22839 0.19559 -0.41000
O 	O 	0.71053 0.24913 0.10601 -0.36600
O 	O 	0.84870 0.80441 0.22839 -0.41200
O 	O 	0.04034 0.89399 0.24913 -0.40400
O 	O 	0.88150 0.19559 0.77161 -0.41300
O 	O 	0.18346 0.10601 0.75087 -0.39500
O 	O 	0.32709 0.30441 0.27161 -0.43600
O 	O 	0.53947 0.39399 0.25087 -0.36700
O 	O 	0.90311 0.69559 0.72839 -0.34500
O 	O 	0.18433 0.60601 0.74913 -0.32900
O 	O 	0.36850 0.72839 0.30441 -0.41800
O 	O 	0.06654 0.74913 0.39399 -0.38100
O 	O 	0.40130 0.27161 0.69559 -0.41900
O 	O 	0.20966 0.25087 0.60601 -0.37100
