data_crystal

_cell_length_a 9.84590
_cell_length_b 11.29110
_cell_length_c 14.82500
_cell_angle_alpha 90.82660
_cell_angle_beta  90.00000
_cell_angle_gamma 90.00000

_symmetry_space_group_name_	'P 1'
_symmetry_space_group_name_H-M	'P 1'

loop_
_symmetry_equiv_pos_as_xyz
  x,y,z

loop_
_atom_site_label
_atom_site_type_symbol
_atom_site_fract_x
_atom_site_fract_y
_atom_site_fract_z
_atom_site_charge
Fe	Fe	0.91876 0.75508 0.13350 1.25300
Fe	Fe	0.89216 0.26222 0.69005 1.23000
Fe	Fe	0.41876 0.74492 0.36650 1.19900
Fe	Fe	0.39216 0.23778 0.80995 1.20500
Fe	Fe	0.08124 0.24492 0.86650 1.14000
Fe	Fe	0.10784 0.73778 0.30995 1.18700
Fe	Fe	0.58124 0.25508 0.63350 1.19100
Fe	Fe	0.60784 0.76222 0.19005 1.21000
Fe	Fe	-0.00000 0.50000 -0.00000 1.10800
Fe	Fe	0.50000 0.00000 0.50000 1.18500
Fe	Fe	-0.00000 0.00000 -0.00000 1.07000
Fe	Fe	0.50000 0.50000 0.50000 1.22200
H 	H 	0.75400 0.86910 0.36410 -0.07400
H 	H 	0.03000 0.46940 0.26440 -0.12900
H 	H 	0.61300 0.55190 0.04590 -0.11600
H 	H 	0.20700 0.97970 0.22570 -0.11600
H 	H 	0.15400 0.68970 0.93170 -0.14900
H 	H 	0.70300 0.98800 0.00700 -0.09600
H 	H 	0.25400 0.63090 0.13590 -0.12100
H 	H 	0.53000 0.03060 0.23560 -0.23400
H 	H 	0.11300 0.94810 0.45410 -0.09400
H 	H 	0.70700 0.52030 0.27430 -0.07400
H 	H 	0.65400 0.81030 0.56830 -0.08000
H 	H 	0.20300 0.51200 0.49300 -0.11300
H 	H 	0.24600 0.13090 0.63590 -0.12200
H 	H 	0.97000 0.53060 0.73560 -0.05300
H 	H 	0.38700 0.44810 0.95410 -0.04900
H 	H 	0.79300 0.02030 0.77430 -0.05800
H 	H 	0.84600 0.31030 0.06830 -0.03900
H 	H 	0.29700 0.01200 0.99300 -0.07600
H 	H 	0.74600 0.36910 0.86410 -0.07100
H 	H 	0.47000 0.96940 0.76440 0.05200
H 	H 	0.88700 0.05190 0.54590 -0.07100
H 	H 	0.29300 0.47970 0.72570 -0.10300
H 	H 	0.34600 0.18970 0.43170 -0.12300
H 	H 	0.79700 0.48800 0.50700 -0.07200
C 	C 	0.82630 0.83307 0.32987 0.44500
C 	C 	0.01690 0.51315 0.21015 0.49300
C 	C 	0.70840 0.57151 0.05321 0.47200
C 	C 	0.13420 0.95267 0.18387 0.56700
C 	C 	0.10500 0.74305 0.96895 0.65100
C 	C 	0.71740 0.92994 0.05144 0.45500
C 	C 	0.32630 0.66693 0.17013 0.45800
C 	C 	0.51690 0.98685 0.28985 0.74100
C 	C 	0.20840 0.92849 0.44679 0.45400
C 	C 	0.63420 0.54733 0.31613 0.44100
C 	C 	0.60500 0.75695 0.53105 0.47300
C 	C 	0.21740 0.57006 0.44856 0.47500
C 	C 	0.17370 0.16693 0.67013 0.46100
C 	C 	0.98310 0.48685 0.78985 0.43700
C 	C 	0.29160 0.42849 0.94679 0.43600
C 	C 	0.86580 0.04733 0.81613 0.31800
C 	C 	0.89500 0.25695 0.03105 0.28600
C 	C 	0.28260 0.07006 0.94856 0.46200
C 	C 	0.67370 0.33307 0.82987 0.44700
C 	C 	0.48310 0.01315 0.71015 0.19500
C 	C 	0.79160 0.07151 0.55321 0.46100
C 	C 	0.36580 0.45267 0.68387 0.45300
C 	C 	0.39500 0.24305 0.46895 0.49200
C 	C 	0.78260 0.42994 0.55144 0.45600
O 	O 	0.79913 0.81143 0.24685 -0.51500
O 	O 	0.93677 0.81371 0.36791 -0.35000
O 	O 	0.00235 0.62436 0.21803 -0.60400
O 	O 	0.00693 0.45486 0.13886 -0.49500
O 	O 	0.74017 0.65029 0.11175 -0.53700
O 	O 	0.78894 0.51567 0.00427 -0.44600
O 	O 	0.08484 0.84963 0.19439 -0.60800
O 	O 	0.10744 0.02101 0.12191 -0.56600
O 	O 	0.02643 0.68683 0.02317 -0.70400
O 	O 	0.11499 0.85095 0.96285 -0.42800
O 	O 	0.84097 0.89685 0.06115 -0.50800
O 	O 	0.61818 0.89462 0.09492 -0.42700
O 	O 	0.29913 0.68857 0.25315 -0.54800
O 	O 	0.43677 0.68629 0.13209 -0.44800
O 	O 	0.50235 0.87564 0.28197 -0.61100
O 	O 	0.50693 0.04514 0.36114 -0.54600
O 	O 	0.24017 0.84971 0.38825 -0.54600
O 	O 	0.28894 0.98433 0.49573 -0.38800
O 	O 	0.58484 0.65037 0.30561 -0.53700
O 	O 	0.60744 0.47899 0.37809 -0.41600
O 	O 	0.52643 0.81317 0.47683 -0.52900
O 	O 	0.61499 0.64905 0.53715 -0.42900
O 	O 	0.34097 0.60315 0.43885 -0.55500
O 	O 	0.11818 0.60538 0.40508 -0.46500
O 	O 	0.20087 0.18857 0.75315 -0.57700
O 	O 	0.06323 0.18629 0.63209 -0.50600
O 	O 	0.99765 0.37564 0.78197 -0.49000
O 	O 	0.99307 0.54514 0.86114 -0.31300
O 	O 	0.25983 0.34971 0.88825 -0.54500
O 	O 	0.21106 0.48433 0.99573 -0.36600
O 	O 	0.91516 0.15037 0.80561 -0.46600
O 	O 	0.89256 0.97899 0.87809 -0.23300
O 	O 	0.97357 0.31317 0.97683 -0.34500
O 	O 	0.88501 0.14905 0.03715 -0.39600
O 	O 	0.15903 0.10315 0.93885 -0.54600
O 	O 	0.38182 0.10538 0.90508 -0.43100
O 	O 	0.70087 0.31143 0.74685 -0.54300
O 	O 	0.56323 0.31371 0.86791 -0.40400
O 	O 	0.49765 0.12436 0.71803 -0.48800
O 	O 	0.49307 0.95486 0.63886 -0.28500
O 	O 	0.75983 0.15029 0.61175 -0.54000
O 	O 	0.71106 0.01567 0.50427 -0.44700
O 	O 	0.41516 0.34963 0.69439 -0.54800
O 	O 	0.39256 0.52101 0.62191 -0.42700
O 	O 	0.47357 0.18683 0.52317 -0.55500
O 	O 	0.38501 0.35095 0.46285 -0.45200
O 	O 	0.65903 0.39685 0.56115 -0.54200
O 	O 	0.88182 0.39462 0.59492 -0.39700
