data_crystal

_cell_length_a 9.96270
_cell_length_b 11.42070
_cell_length_c 14.59070
_cell_angle_alpha 91.42490
_cell_angle_beta  90.00000
_cell_angle_gamma 90.00000

_symmetry_space_group_name_	'P 1'
_symmetry_space_group_name_H-M	'P 1'

loop_
_symmetry_equiv_pos_as_xyz
  x,y,z

loop_
_atom_site_label
_atom_site_type_symbol
_atom_site_fract_x
_atom_site_fract_y
_atom_site_fract_z
_atom_site_charge
Fe	Fe	0.92033 0.75546 0.13273 1.24900
Fe	Fe	0.89094 0.25999 0.68775 1.23300
Fe	Fe	0.42033 0.74454 0.36727 1.20100
Fe	Fe	0.39094 0.24001 0.81225 1.21000
Fe	Fe	0.07967 0.24454 0.86727 1.14300
Fe	Fe	0.10906 0.74001 0.31225 1.19400
Fe	Fe	0.57967 0.25546 0.63273 1.19300
Fe	Fe	0.60906 0.75999 0.18775 1.21400
Fe	Fe	-0.00000 0.50000 -0.00000 1.12000
Fe	Fe	0.50000 -0.00000 0.50000 1.18700
Fe	Fe	-0.00000 0.00000 -0.00000 1.08800
Fe	Fe	0.50000 0.50000 0.50000 1.22500
H 	H 	0.75670 0.85620 0.36820 -0.09500
H 	H 	0.03360 0.47800 0.26510 -0.15100
H 	H 	0.62150 0.55550 0.04240 -0.08000
H 	H 	0.18120 0.98340 0.23460 -0.17000
H 	H 	0.15910 0.69970 0.92870 -0.14800
H 	H 	0.70310 0.98470 0.00620 -0.10200
H 	H 	0.25670 0.64380 0.13180 -0.12700
H 	H 	0.53360 0.02200 0.23490 -0.26600
H 	H 	0.12150 0.94450 0.45760 -0.12200
H 	H 	0.68120 0.51660 0.26540 -0.12300
H 	H 	0.65910 0.80030 0.57130 -0.08900
H 	H 	0.20310 0.51530 0.49380 -0.12300
H 	H 	0.24330 0.14380 0.63180 -0.14100
H 	H 	0.96640 0.52200 0.73490 -0.07900
H 	H 	0.37850 0.44450 0.95760 -0.13800
H 	H 	0.81880 0.01660 0.76540 -0.09100
H 	H 	0.84090 0.30030 0.07130 -0.05600
H 	H 	0.29690 0.01530 0.99380 -0.09400
H 	H 	0.74330 0.35620 0.86820 -0.10600
H 	H 	0.46640 0.97800 0.76510 0.03700
H 	H 	0.87850 0.05550 0.54240 -0.09900
H 	H 	0.31880 0.48340 0.73460 -0.14300
H 	H 	0.34090 0.19970 0.42870 -0.13000
H 	H 	0.79690 0.48470 0.50620 -0.08200
C 	C 	0.82620 0.82703 0.33173 0.48500
C 	C 	0.01450 0.51761 0.21171 0.54400
C 	C 	0.71210 0.57350 0.04880 0.33700
C 	C 	0.12490 0.95463 0.18843 0.66600
C 	C 	0.10450 0.74367 0.96817 0.65300
C 	C 	0.71980 0.92765 0.04915 0.47400
C 	C 	0.32620 0.67297 0.16827 0.49700
C 	C 	0.51450 0.98239 0.28829 0.80700
C 	C 	0.21210 0.92650 0.45120 0.50700
C 	C 	0.62490 0.54537 0.31157 0.52700
C 	C 	0.60450 0.75633 0.53183 0.50000
C 	C 	0.21980 0.57235 0.45085 0.49700
C 	C 	0.17380 0.17297 0.66827 0.50500
C 	C 	0.98550 0.48239 0.78829 0.48300
C 	C 	0.28790 0.42650 0.95120 0.66700
C 	C 	0.87510 0.04537 0.81157 0.38500
C 	C 	0.89550 0.25633 0.03183 0.33200
C 	C 	0.28020 0.07235 0.95085 0.48400
C 	C 	0.67380 0.32703 0.83173 0.49200
C 	C 	0.48550 0.01761 0.71171 0.22400
C 	C 	0.78790 0.07350 0.54880 0.51000
C 	C 	0.37510 0.45463 0.68843 0.53500
C 	C 	0.39550 0.24367 0.46817 0.52000
C 	C 	0.78020 0.42765 0.54915 0.47400
O 	O 	0.79947 0.80715 0.24755 -0.52600
O 	O 	0.93547 0.81137 0.36987 -0.36000
O 	O 	0.00567 0.62759 0.21859 -0.61600
O 	O 	0.00020 0.45784 0.14134 -0.50500
O 	O 	0.74206 0.65181 0.10731 -0.50600
O 	O 	0.79150 0.51789 0.99869 -0.27100
O 	O 	0.08166 0.85219 0.19719 -0.63500
O 	O 	0.10090 0.02082 0.12562 -0.58800
O 	O 	0.02757 0.68698 0.02178 -0.69000
O 	O 	0.11280 0.84991 0.96411 -0.44000
O 	O 	0.84235 0.89673 0.05970 -0.50900
O 	O 	0.62191 0.88904 0.09044 -0.42900
O 	O 	0.29947 0.69285 0.25245 -0.55500
O 	O 	0.43547 0.68863 0.13013 -0.45000
O 	O 	0.50567 0.87241 0.28141 -0.63100
O 	O 	0.50020 0.04216 0.35866 -0.56700
O 	O 	0.24206 0.84819 0.39269 -0.56000
O 	O 	0.29150 0.98211 0.50131 -0.40300
O 	O 	0.58166 0.64781 0.30281 -0.56100
O 	O 	0.60090 0.47918 0.37438 -0.44400
O 	O 	0.52757 0.81302 0.47822 -0.53600
O 	O 	0.61280 0.65009 0.53589 -0.43700
O 	O 	0.34235 0.60327 0.44030 -0.55600
O 	O 	0.12191 0.61096 0.40956 -0.46800
O 	O 	0.20053 0.19285 0.75245 -0.58600
O 	O 	0.06453 0.18863 0.63013 -0.51300
O 	O 	0.99433 0.37241 0.78141 -0.50500
O 	O 	0.99980 0.54216 0.85866 -0.33800
O 	O 	0.25794 0.34819 0.89269 -0.60400
O 	O 	0.20850 0.48211 0.00131 -0.56600
O 	O 	0.91834 0.14781 0.80281 -0.48600
O 	O 	0.89910 0.97918 0.87438 -0.26600
O 	O 	0.97243 0.31302 0.97822 -0.37100
O 	O 	0.88720 0.15009 0.03589 -0.40400
O 	O 	0.15765 0.10327 0.94030 -0.55200
O 	O 	0.37809 0.11096 0.90956 -0.43800
O 	O 	0.70053 0.30715 0.74755 -0.55400
O 	O 	0.56453 0.31137 0.86987 -0.41900
O 	O 	0.49433 0.12759 0.71859 -0.49700
O 	O 	0.49980 0.95784 0.64134 -0.29800
O 	O 	0.75794 0.15181 0.60731 -0.55500
O 	O 	0.70850 0.01789 0.49869 -0.45800
O 	O 	0.41834 0.35219 0.69719 -0.57200
O 	O 	0.39910 0.52082 0.62562 -0.45400
O 	O 	0.47243 0.18698 0.52178 -0.56200
O 	O 	0.38720 0.34991 0.46411 -0.45900
O 	O 	0.65765 0.39673 0.55970 -0.54200
O 	O 	0.87809 0.38904 0.59044 -0.40200
