data_crystal

_cell_length_a 10.08530
_cell_length_b 11.52000
_cell_length_c 14.95960
_cell_angle_alpha 91.46640
_cell_angle_beta  90.00000
_cell_angle_gamma 90.00000

_symmetry_space_group_name_	'P 1'
_symmetry_space_group_name_H-M	'P 1'

loop_
_symmetry_equiv_pos_as_xyz
  x,y,z

loop_
_atom_site_label
_atom_site_type_symbol
_atom_site_fract_x
_atom_site_fract_y
_atom_site_fract_z
_atom_site_charge
Fe	Fe	0.92791 0.75583 0.13361 1.25300
Fe	Fe	0.87800 0.25960 0.69416 1.23000
Fe	Fe	0.42791 0.74417 0.36639 1.20000
Fe	Fe	0.37800 0.24040 0.80584 1.20700
Fe	Fe	0.07209 0.24417 0.86639 1.14000
Fe	Fe	0.12200 0.74040 0.30584 1.19000
Fe	Fe	0.57209 0.25583 0.63361 1.19300
Fe	Fe	0.62200 0.75960 0.19416 1.21300
Fe	Fe	-0.00000 0.50000 -0.00000 1.10900
Fe	Fe	0.50000 0.00000 0.50000 1.18400
Fe	Fe	-0.00000 0.00000 -0.00000 1.07600
Fe	Fe	0.50000 0.50000 0.50000 1.22800
H 	H 	0.77200 0.84560 0.37160 -0.08300
H 	H 	0.06100 0.47380 0.25880 -0.10300
H 	H 	0.62300 0.55900 0.05500 -0.11700
H 	H 	0.21800 0.97020 0.21520 -0.14300
H 	H 	0.13800 0.69810 0.92410 -0.19400
H 	H 	0.71500 0.99550 0.02750 -0.11700
H 	H 	0.27200 0.65440 0.12840 -0.13000
H 	H 	0.56100 0.02620 0.24120 -0.19500
H 	H 	0.12300 0.94100 0.44500 -0.10000
H 	H 	0.71800 0.52980 0.28480 -0.09400
H 	H 	0.63800 0.80190 0.57590 -0.10900
H 	H 	0.21500 0.50450 0.47250 -0.14100
H 	H 	0.22800 0.15440 0.62840 -0.13100
H 	H 	0.93900 0.52620 0.74120 -0.03600
H 	H 	0.37700 0.44100 0.94500 -0.05700
H 	H 	0.78200 0.02980 0.78480 -0.07100
H 	H 	0.86200 0.30190 0.07590 -0.05300
H 	H 	0.28500 0.00450 0.97250 -0.11200
H 	H 	0.72800 0.34560 0.87160 -0.08100
H 	H 	0.43900 0.97380 0.75880 0.05600
H 	H 	0.87700 0.05900 0.55500 -0.07500
H 	H 	0.28200 0.47020 0.71520 -0.12400
H 	H 	0.36200 0.19810 0.42410 -0.15500
H 	H 	0.78500 0.49550 0.52750 -0.10100
C 	C 	0.84110 0.81914 0.33234 0.46900
C 	C 	0.03690 0.52045 0.20475 0.46500
C 	C 	0.71850 0.57145 0.05925 0.48200
C 	C 	0.14310 0.94811 0.17811 0.62500
C 	C 	0.09160 0.74256 0.96396 0.73400
C 	C 	0.73100 0.93444 0.06394 0.50400
C 	C 	0.34110 0.68086 0.16766 0.48600
C 	C 	0.53690 0.97955 0.29525 0.69200
C 	C 	0.21850 0.92855 0.44075 0.46800
C 	C 	0.64310 0.55189 0.32189 0.48000
C 	C 	0.59160 0.75744 0.53604 0.53100
C 	C 	0.23100 0.56556 0.43606 0.53100
C 	C 	0.15890 0.18086 0.66766 0.49000
C 	C 	0.96310 0.47955 0.79525 0.41900
C 	C 	0.28150 0.42855 0.94075 0.44800
C 	C 	0.85690 0.05189 0.82189 0.34100
C 	C 	0.90840 0.25744 0.03604 0.31900
C 	C 	0.26900 0.06556 0.93606 0.51800
C 	C 	0.65890 0.31914 0.83234 0.47100
C 	C 	0.46310 0.02045 0.70475 0.19600
C 	C 	0.78150 0.07145 0.55925 0.47000
C 	C 	0.35690 0.44811 0.67811 0.49500
C 	C 	0.40840 0.24256 0.46396 0.55500
C 	C 	0.76900 0.43444 0.56394 0.50800
O 	O 	0.81188 0.80200 0.25048 -0.52000
O 	O 	0.95124 0.80561 0.36626 -0.35700
O 	O 	0.02030 0.62903 0.21329 -0.59400
O 	O 	0.01856 0.46086 0.13660 -0.49400
O 	O 	0.75054 0.65401 0.11240 -0.54000
O 	O 	0.79383 0.51277 0.01128 -0.44800
O 	O 	0.08968 0.85099 0.19355 -0.62200
O 	O 	0.11856 0.01157 0.11594 -0.58900
O 	O 	0.02478 0.68713 0.02095 -0.72600
O 	O 	0.09854 0.84808 0.95783 -0.45400
O 	O 	0.85028 0.90027 0.06733 -0.51700
O 	O 	0.63629 0.89480 0.10522 -0.44000
O 	O 	0.31188 0.69800 0.24952 -0.55400
O 	O 	0.45124 0.69439 0.13374 -0.45500
O 	O 	0.52030 0.87097 0.28671 -0.59700
O 	O 	0.51856 0.03914 0.36340 -0.54200
O 	O 	0.25054 0.84599 0.38760 -0.54900
O 	O 	0.29383 0.98723 0.48872 -0.39300
O 	O 	0.58968 0.64901 0.30645 -0.54700
O 	O 	0.61856 0.48843 0.38406 -0.43000
O 	O 	0.52478 0.81287 0.47905 -0.54200
O 	O 	0.59854 0.65192 0.54217 -0.44700
O 	O 	0.35028 0.59973 0.43267 -0.56800
O 	O 	0.13629 0.60520 0.39478 -0.48000
O 	O 	0.18812 0.19800 0.74952 -0.58300
O 	O 	0.04876 0.19439 0.63374 -0.51600
O 	O 	0.97970 0.37097 0.78671 -0.48500
O 	O 	0.98144 0.53914 0.86340 -0.31400
O 	O 	0.24946 0.34599 0.88760 -0.54700
O 	O 	0.20617 0.48723 0.98872 -0.37400
O 	O 	0.91032 0.14901 0.80645 -0.47200
O 	O 	0.88144 0.98843 0.88406 -0.24000
O 	O 	0.97522 0.31287 0.97905 -0.35200
O 	O 	0.90146 0.15192 0.04217 -0.40500
O 	O 	0.14972 0.09973 0.93267 -0.56100
O 	O 	0.36371 0.10520 0.89478 -0.45200
O 	O 	0.68812 0.30200 0.75048 -0.54800
O 	O 	0.54876 0.30561 0.86626 -0.41500
O 	O 	0.47970 0.12903 0.71329 -0.48700
O 	O 	0.48144 0.96086 0.63660 -0.28900
O 	O 	0.74946 0.15401 0.61240 -0.54300
O 	O 	0.70617 0.01277 0.51128 -0.45200
O 	O 	0.41032 0.35099 0.69355 -0.55800
O 	O 	0.38144 0.51157 0.61594 -0.44300
O 	O 	0.47522 0.18713 0.52095 -0.57200
O 	O 	0.40146 0.34808 0.45783 -0.47100
O 	O 	0.64972 0.40027 0.56733 -0.55400
O 	O 	0.86371 0.39480 0.60522 -0.41600
