data_crystal

_cell_length_a 9.93690
_cell_length_b 11.44430
_cell_length_c 14.81420
_cell_angle_alpha 91.47470
_cell_angle_beta  90.00000
_cell_angle_gamma 90.00000

_symmetry_space_group_name_	'P 1'
_symmetry_space_group_name_H-M	'P 1'

loop_
_symmetry_equiv_pos_as_xyz
  x,y,z

loop_
_atom_site_label
_atom_site_type_symbol
_atom_site_fract_x
_atom_site_fract_y
_atom_site_fract_z
_atom_site_charge
Fe	Fe	0.92445 0.75637 0.13294 1.25500
Fe	Fe	0.61530 0.75996 0.19201 1.21300
Fe	Fe	0.42445 0.74363 0.36706 1.20000
Fe	Fe	0.11530 0.74004 0.30799 1.19000
Fe	Fe	0.07555 0.24363 0.86706 1.14000
Fe	Fe	0.38470 0.24004 0.80799 1.20700
Fe	Fe	0.57555 0.25637 0.63294 1.19200
Fe	Fe	0.88470 0.25996 0.69201 1.23100
Fe	Fe	-0.00000 0.50000 -0.00000 1.10700
Fe	Fe	0.50000 0.00000 0.50000 1.18500
Fe	Fe	-0.00000 0.00000 -0.00000 1.07300
Fe	Fe	0.50000 0.50000 0.50000 1.22400
H 	H 	0.76330 0.85420 0.36940 -0.08400
H 	H 	0.04710 0.47720 0.26080 -0.13400
H 	H 	0.62030 0.55630 0.04620 -0.12800
H 	H 	0.20270 0.97880 0.22540 -0.15000
H 	H 	0.15860 0.69650 0.92770 -0.14100
H 	H 	0.70660 0.99660 0.01950 -0.09200
H 	H 	0.26330 0.64580 0.13060 -0.13100
H 	H 	0.54710 0.02280 0.23920 -0.24300
H 	H 	0.12030 0.94370 0.45380 -0.10800
H 	H 	0.70270 0.52120 0.27460 -0.10200
H 	H 	0.65860 0.80350 0.57230 -0.07300
H 	H 	0.20660 0.50340 0.48050 -0.11100
H 	H 	0.23670 0.14580 0.63060 -0.13000
H 	H 	0.95290 0.52280 0.73920 -0.06300
H 	H 	0.37970 0.44370 0.95380 -0.06100
H 	H 	0.79730 0.02120 0.77460 -0.07600
H 	H 	0.84140 0.30350 0.07230 -0.03300
H 	H 	0.29340 0.00340 0.98050 -0.07900
H 	H 	0.73670 0.35420 0.86940 -0.07900
H 	H 	0.45290 0.97720 0.76080 0.04600
H 	H 	0.87970 0.05630 0.54620 -0.08300
H 	H 	0.29730 0.47880 0.72540 -0.12800
H 	H 	0.34140 0.19650 0.42770 -0.11600
H 	H 	0.79340 0.49660 0.51950 -0.07200
C 	C 	0.83360 0.82420 0.33200 0.46600
C 	C 	0.02320 0.51729 0.20779 0.50900
C 	C 	0.71330 0.57455 0.05145 0.49500
C 	C 	0.13940 0.95126 0.18176 0.62100
C 	C 	0.10220 0.74208 0.96668 0.64300
C 	C 	0.72410 0.93460 0.05930 0.45600
C 	C 	0.33360 0.67580 0.16800 0.48300
C 	C 	0.52320 0.98271 0.29221 0.76100
C 	C 	0.21330 0.92545 0.44855 0.47600
C 	C 	0.63940 0.54874 0.31824 0.48500
C 	C 	0.60220 0.75792 0.53332 0.46600
C 	C 	0.22410 0.56540 0.44070 0.47700
C 	C 	0.16640 0.17580 0.66800 0.48600
C 	C 	0.97680 0.48271 0.79221 0.45500
C 	C 	0.28670 0.42545 0.94855 0.45400
C 	C 	0.86060 0.04874 0.81824 0.34900
C 	C 	0.89780 0.25792 0.03332 0.28100
C 	C 	0.27590 0.06540 0.94070 0.46600
C 	C 	0.66640 0.32420 0.83200 0.46800
C 	C 	0.47680 0.01729 0.70779 0.20800
C 	C 	0.78670 0.07455 0.55145 0.48000
C 	C 	0.36060 0.45126 0.68176 0.49600
C 	C 	0.39780 0.24208 0.46668 0.48400
C 	C 	0.77590 0.43460 0.55930 0.45800
O 	O 	0.80588 0.80593 0.24897 -0.52100
O 	O 	0.44335 0.69339 0.13127 -0.45500
O 	O 	0.01239 0.62785 0.21482 -0.60500
O 	O 	0.00550 0.45743 0.13887 -0.50500
O 	O 	0.74535 0.65442 0.10871 -0.54300
O 	O 	0.79126 0.51817 0.00185 -0.45400
O 	O 	0.08722 0.85140 0.19470 -0.62300
O 	O 	0.11601 0.01552 0.11842 -0.58300
O 	O 	0.02794 0.68673 0.02244 -0.70200
O 	O 	0.10659 0.84876 0.95949 -0.42500
O 	O 	0.84623 0.90008 0.06480 -0.50700
O 	O 	0.62681 0.89549 0.10055 -0.42200
O 	O 	0.30588 0.69407 0.25103 -0.55500
O 	O 	0.94335 0.80661 0.36873 -0.35700
O 	O 	0.51239 0.87215 0.28518 -0.61400
O 	O 	0.50550 0.04257 0.36113 -0.55700
O 	O 	0.24535 0.84558 0.39129 -0.55200
O 	O 	0.29126 0.98183 0.49815 -0.39700
O 	O 	0.58722 0.64860 0.30530 -0.54900
O 	O 	0.61601 0.48448 0.38158 -0.43100
O 	O 	0.52794 0.81327 0.47756 -0.52600
O 	O 	0.60659 0.65124 0.54051 -0.42500
O 	O 	0.34623 0.59992 0.43520 -0.55400
O 	O 	0.12681 0.60451 0.39945 -0.46100
O 	O 	0.19412 0.19407 0.75103 -0.58500
O 	O 	0.55665 0.30661 0.86873 -0.41200
O 	O 	0.98761 0.37215 0.78518 -0.49400
O 	O 	0.99450 0.54257 0.86113 -0.32100
O 	O 	0.25465 0.34558 0.89129 -0.54900
O 	O 	0.20874 0.48183 0.99815 -0.37200
O 	O 	0.91278 0.14860 0.80530 -0.47500
O 	O 	0.88399 0.98448 0.88158 -0.24600
O 	O 	0.97206 0.31327 0.97756 -0.34300
O 	O 	0.89341 0.15124 0.04051 -0.39100
O 	O 	0.15377 0.09992 0.93520 -0.54600
O 	O 	0.37319 0.10451 0.89945 -0.43000
O 	O 	0.69412 0.30593 0.74897 -0.54900
O 	O 	0.05665 0.19339 0.63127 -0.51400
O 	O 	0.48761 0.12785 0.71482 -0.49100
O 	O 	0.49450 0.95743 0.63887 -0.29300
O 	O 	0.75465 0.15442 0.60871 -0.54500
O 	O 	0.70874 0.01817 0.50185 -0.45300
O 	O 	0.41278 0.35140 0.69470 -0.55900
O 	O 	0.38399 0.51552 0.61842 -0.44300
O 	O 	0.47206 0.18673 0.52244 -0.55200
O 	O 	0.39341 0.34876 0.45949 -0.44700
O 	O 	0.65377 0.40008 0.56480 -0.54100
O 	O 	0.87319 0.39549 0.60055 -0.39500
