data_crystal

_cell_length_a 11.32100
_cell_length_b 11.32100
_cell_length_c 19.87200
_cell_angle_alpha 90.00000
_cell_angle_beta  90.00000
_cell_angle_gamma 120.00000

_symmetry_space_group_name_	'P 1'
_symmetry_space_group_name_H-M	'P 1'

loop_
_symmetry_equiv_pos_as_xyz
  x,y,z

loop_
_atom_site_label
_atom_site_type_symbol
_atom_site_fract_x
_atom_site_fract_y
_atom_site_fract_z
_atom_site_charge
Zn	Zn	0.11015 0.40838 0.77826 1.20100
Zn	Zn	0.29823 0.88985 0.11159 1.21300
Zn	Zn	0.59162 0.70177 0.44493 1.20800
Zn	Zn	0.70177 0.59162 0.22174 1.20700
Zn	Zn	0.40838 0.11015 0.88841 1.20000
Zn	Zn	0.88985 0.29823 0.55507 1.21200
Zn	Zn	0.62177 0.00000 0.50000 1.21600
Zn	Zn	0.37823 0.37823 0.83333 1.22900
Zn	Zn	-0.00000 0.62177 0.16667 1.21600
H 	H 	0.15750 0.71000 0.76450 0.02200
H 	H 	0.20300 0.83750 0.66110 0.07100
H 	H 	0.08690 0.17910 0.53170 -0.00200
H 	H 	0.31840 0.27390 0.57170 0.04300
H 	H 	0.46780 0.47490 0.65780 0.15000
H 	H 	0.42230 0.58330 0.66850 0.14900
H 	H 	0.15000 0.72030 0.53080 0.10600
H 	H 	0.20920 0.62400 0.52280 0.10000
H 	H 	0.55250 0.84250 0.09783 0.02700
H 	H 	0.63450 0.79700 0.99443 0.07000
H 	H 	0.09220 0.91310 0.86503 0.00200
H 	H 	0.95550 0.68160 0.90503 0.11100
H 	H 	0.00710 0.53220 0.99113 0.13800
H 	H 	0.16100 0.57770 0.00183 0.14300
H 	H 	0.57030 0.85000 0.86413 0.12700
H 	H 	0.41480 0.79080 0.85613 0.11500
H 	H 	0.29000 0.44750 0.43117 0.01900
H 	H 	0.16250 0.36550 0.32777 0.04900
H 	H 	0.82090 0.90780 0.19837 0.05400
H 	H 	0.72610 0.04450 0.23837 -0.01500
H 	H 	0.52510 0.99290 0.32447 0.16300
H 	H 	0.41670 0.83900 0.33517 0.14700
H 	H 	0.27970 0.42970 0.19747 0.11100
H 	H 	0.37600 0.58520 0.18947 0.10900
H 	H 	0.44750 0.29000 0.23550 0.01900
H 	H 	0.36550 0.16250 0.33890 0.04900
H 	H 	0.90780 0.82090 0.46830 0.05500
H 	H 	0.04450 0.72610 0.42830 -0.01800
H 	H 	0.99290 0.52510 0.34220 0.16400
H 	H 	0.83900 0.41670 0.33150 0.14700
H 	H 	0.42970 0.27970 0.46920 0.11100
H 	H 	0.58520 0.37600 0.47720 0.10900
H 	H 	0.71000 0.15750 0.90217 0.02200
H 	H 	0.83750 0.20300 0.00557 0.07000
H 	H 	0.17910 0.08690 0.13497 -0.00100
H 	H 	0.27390 0.31840 0.09497 0.04300
H 	H 	0.47490 0.46780 0.00887 0.14900
H 	H 	0.58330 0.42230 0.99817 0.14800
H 	H 	0.72030 0.15000 0.13587 0.10600
H 	H 	0.62400 0.20920 0.14387 0.10000
H 	H 	0.84250 0.55250 0.56883 0.02700
H 	H 	0.79700 0.63450 0.67223 0.07100
H 	H 	0.91310 0.09220 0.80163 -0.00100
H 	H 	0.68160 0.95550 0.76163 0.11600
H 	H 	0.53220 0.00710 0.67553 0.13800
H 	H 	0.57770 0.16100 0.66483 0.14600
H 	H 	0.85000 0.57030 0.80253 0.12700
H 	H 	0.79080 0.41480 0.81053 0.11500
C 	C 	0.16800 0.68050 0.72240 0.02700
C 	C 	0.19230 0.75090 0.66570 -0.02600
C 	C 	0.18000 0.55550 0.64490 0.04900
C 	C 	0.18670 0.44650 0.61000 0.03700
C 	C 	0.13460 0.25930 0.55640 0.00100
C 	C 	0.26250 0.31140 0.57800 -0.01700
C 	C 	0.43060 0.52510 0.63530 -0.31300
C 	C 	0.52990 0.61400 0.58180 0.42500
C 	C 	0.22410 0.70650 0.54510 -0.22800
C 	C 	0.37880 0.80410 0.53560 0.33200
C 	C 	0.51250 0.83200 0.05573 0.03200
C 	C 	0.55860 0.80770 0.99903 -0.01700
C 	C 	0.37550 0.82000 0.97823 0.06300
C 	C 	0.25980 0.81330 0.94333 0.04300
C 	C 	0.12470 0.86540 0.88973 0.05700
C 	C 	0.04890 0.73750 0.91133 -0.10800
C 	C 	0.09450 0.56940 0.96863 -0.31200
C 	C 	0.08410 0.47010 0.91513 0.42400
C 	C 	0.48240 0.77590 0.87843 -0.24500
C 	C 	0.42530 0.62120 0.86893 0.34000
C 	C 	0.31950 0.48750 0.38907 0.02400
C 	C 	0.24910 0.44140 0.33237 -0.02400
C 	C 	0.44450 0.62450 0.31157 0.05400
C 	C 	0.55350 0.74020 0.27667 0.04300
C 	C 	0.74070 0.87530 0.22307 -0.04500
C 	C 	0.68860 0.95110 0.24467 0.09500
C 	C 	0.47490 0.90550 0.30197 -0.30800
C 	C 	0.38600 0.91590 0.24847 0.42900
C 	C 	0.29350 0.51760 0.21177 -0.24300
C 	C 	0.19590 0.57470 0.20227 0.33600
C 	C 	0.48750 0.31950 0.27760 0.02400
C 	C 	0.44140 0.24910 0.33430 -0.02400
C 	C 	0.62450 0.44450 0.35510 0.05400
C 	C 	0.74020 0.55350 0.39000 0.04300
C 	C 	0.87530 0.74070 0.44360 -0.04700
C 	C 	0.95110 0.68860 0.42200 0.09900
C 	C 	0.90550 0.47490 0.36470 -0.30800
C 	C 	0.91590 0.38600 0.41820 0.42900
C 	C 	0.51760 0.29350 0.45490 -0.24300
C 	C 	0.57470 0.19590 0.46440 0.33600
C 	C 	0.68050 0.16800 0.94427 0.02200
C 	C 	0.75090 0.19230 0.00097 -0.02200
C 	C 	0.55550 0.18000 0.02177 0.05000
C 	C 	0.44650 0.18670 0.05667 0.03700
C 	C 	0.25930 0.13460 0.11027 0.00100
C 	C 	0.31140 0.26250 0.08867 -0.01600
C 	C 	0.52510 0.43060 0.03137 -0.31100
C 	C 	0.61400 0.52990 0.08487 0.42400
C 	C 	0.70650 0.22410 0.12157 -0.22800
C 	C 	0.80410 0.37880 0.13107 0.33200
C 	C 	0.83200 0.51250 0.61093 0.03500
C 	C 	0.80770 0.55860 0.66763 -0.02000
C 	C 	0.82000 0.37550 0.68843 0.06100
C 	C 	0.81330 0.25980 0.72333 0.04300
C 	C 	0.86540 0.12470 0.77693 0.06000
C 	C 	0.73750 0.04890 0.75533 -0.11700
C 	C 	0.56940 0.09450 0.69803 -0.31800
C 	C 	0.47010 0.08410 0.75153 0.42500
C 	C 	0.77590 0.48240 0.78823 -0.24500
C 	C 	0.62120 0.42530 0.79773 0.34000
N 	N 	0.16080 0.55960 0.71000 -0.25900
N 	N 	0.19850 0.67090 0.61470 -0.07900
N 	N 	0.08300 0.34250 0.57630 -0.27000
N 	N 	0.29650 0.42930 0.61070 -0.06200
N 	N 	0.39880 0.83920 0.04333 -0.25300
N 	N 	0.47240 0.80150 0.94803 -0.07400
N 	N 	0.25950 0.91700 0.90963 -0.25200
N 	N 	0.13280 0.70350 0.94403 -0.04900
N 	N 	0.44040 0.60120 0.37667 -0.25500
N 	N 	0.32910 0.52760 0.28137 -0.07800
N 	N 	0.65750 0.74050 0.24297 -0.24800
N 	N 	0.57070 0.86720 0.27737 -0.07800
N 	N 	0.60120 0.44040 0.29000 -0.25500
N 	N 	0.52760 0.32910 0.38530 -0.07800
N 	N 	0.74050 0.65750 0.42370 -0.24700
N 	N 	0.86720 0.57070 0.38930 -0.07800
N 	N 	0.55960 0.16080 0.95667 -0.26000
N 	N 	0.67090 0.19850 0.05197 -0.08000
N 	N 	0.34250 0.08300 0.09037 -0.27000
N 	N 	0.42930 0.29650 0.05597 -0.06300
N 	N 	0.83920 0.39880 0.62333 -0.25200
N 	N 	0.80150 0.47240 0.71863 -0.07300
N 	N 	0.91700 0.25950 0.75703 -0.25300
N 	N 	0.70350 0.13280 0.72263 -0.04700
O 	O 	0.48310 0.59470 0.52200 -0.47900
O 	O 	0.64550 0.69790 0.59920 -0.32300
O 	O 	0.67310 0.89320 0.44290 -0.54000
O 	O 	0.46330 0.84100 0.58460 -0.32200
O 	O 	0.42160 0.85410 0.47750 -0.41800
O 	O 	0.11160 0.51690 0.85533 -0.48800
O 	O 	0.05240 0.35450 0.93253 -0.35200
O 	O 	0.22010 0.32690 0.77623 -0.57300
O 	O 	0.37770 0.53670 0.91793 -0.34200
O 	O 	0.43250 0.57840 0.81083 -0.43000
O 	O 	0.40530 0.88840 0.18867 -0.47300
O 	O 	0.30210 0.94760 0.26587 -0.32400
O 	O 	0.10680 0.77990 0.10957 -0.56700
O 	O 	0.15900 0.62230 0.25127 -0.35400
O 	O 	0.14590 0.56750 0.14417 -0.44200
O 	O 	0.88840 0.40530 0.47800 -0.47300
O 	O 	0.94760 0.30210 0.40080 -0.32400
O 	O 	0.77990 0.10680 0.55710 -0.56600
O 	O 	0.62230 0.15900 0.41540 -0.35300
O 	O 	0.56750 0.14590 0.52250 -0.44100
O 	O 	0.59470 0.48310 0.14467 -0.47900
O 	O 	0.69790 0.64550 0.06747 -0.32300
O 	O 	0.89320 0.67310 0.22377 -0.54000
O 	O 	0.84100 0.46330 0.08207 -0.32100
O 	O 	0.85410 0.42160 0.18917 -0.41700
O 	O 	0.51690 0.11160 0.81133 -0.48900
O 	O 	0.35450 0.05240 0.73413 -0.35300
O 	O 	0.32690 0.22010 0.89043 -0.57300
O 	O 	0.53670 0.37770 0.74873 -0.34200
O 	O 	0.57840 0.43250 0.85583 -0.43000
