data_crystal

_cell_length_a 11.44200
_cell_length_b 13.37300
_cell_length_c 15.80700
_cell_angle_alpha 90.00000
_cell_angle_beta  90.00000
_cell_angle_gamma 101.36000

_symmetry_space_group_name_	'P 1'
_symmetry_space_group_name_H-M	'P 1'

loop_
_symmetry_equiv_pos_as_xyz
  x,y,z

loop_
_atom_site_label
_atom_site_type_symbol
_atom_site_fract_x
_atom_site_fract_y
_atom_site_fract_z
_atom_site_charge
Zn	Zn	0.42889 0.89163 0.57884 1.22000
Zn	Zn	0.57111 0.60837 0.07884 1.22000
Zn	Zn	0.57111 0.10837 0.42116 1.22000
Zn	Zn	0.42889 0.39163 0.92116 1.22000
H 	H 	0.60980 0.82650 0.88450 0.18600
H 	H 	0.60040 0.84120 0.78640 0.18500
H 	H 	0.38410 0.61790 0.76600 0.15000
H 	H 	0.03900 0.96360 0.68880 0.09600
H 	H 	0.23780 0.96050 0.68440 -0.00100
H 	H 	0.19980 0.80600 0.47800 0.01800
H 	H 	0.00120 0.80840 0.47230 0.09100
H 	H 	0.86640 0.00220 0.66330 0.09100
H 	H 	0.66680 0.00230 0.66020 0.01900
H 	H 	0.61400 0.77630 0.50140 0.00300
H 	H 	0.81140 0.77230 0.49970 0.08800
H 	H 	0.39020 0.67350 0.38450 0.18600
H 	H 	0.39960 0.65880 0.28640 0.18500
H 	H 	0.61590 0.88210 0.26600 0.15100
H 	H 	0.96100 0.53640 0.18880 0.09600
H 	H 	0.76220 0.53950 0.18440 -0.00100
H 	H 	0.80020 0.69400 0.97800 0.01800
H 	H 	0.99880 0.69160 0.97230 0.09100
H 	H 	0.13360 0.49780 0.16330 0.09200
H 	H 	0.33320 0.49770 0.16020 0.01900
H 	H 	0.38600 0.72370 0.00140 0.00300
H 	H 	0.18860 0.72770 0.99970 0.08800
H 	H 	0.39020 0.17350 0.11550 0.18600
H 	H 	0.39960 0.15880 0.21360 0.18500
H 	H 	0.61590 0.38210 0.23400 0.15000
H 	H 	0.96100 0.03640 0.31120 0.09600
H 	H 	0.76220 0.03950 0.31560 -0.00100
H 	H 	0.80020 0.19400 0.52200 0.01800
H 	H 	0.99880 0.19160 0.52770 0.09100
H 	H 	0.13360 0.99780 0.33670 0.09100
H 	H 	0.33320 0.99770 0.33980 0.01900
H 	H 	0.38600 0.22370 0.49860 0.00300
H 	H 	0.18860 0.22770 0.50030 0.08800
H 	H 	0.60980 0.32650 0.61550 0.18600
H 	H 	0.60040 0.34120 0.71360 0.18500
H 	H 	0.38410 0.11790 0.73400 0.15100
H 	H 	0.03900 0.46360 0.81120 0.09600
H 	H 	0.23780 0.46050 0.81560 -0.00100
H 	H 	0.19980 0.30600 0.02200 0.01800
H 	H 	0.00120 0.30840 0.02770 0.09100
H 	H 	0.86640 0.50220 0.83670 0.09200
H 	H 	0.66680 0.50230 0.83980 0.01900
H 	H 	0.61400 0.27630 0.99860 0.00300
H 	H 	0.81140 0.27230 0.00030 0.08800
C 	C 	0.42480 0.74620 0.69022 0.38800
C 	C 	0.73740 0.76840 0.81869 0.42500
C 	C 	0.61370 0.79377 0.83010 -0.42400
C 	C 	0.43760 0.67989 0.76306 -0.26400
C 	C 	0.51865 0.69989 0.82547 0.13300
C 	C 	0.51746 0.62279 0.89441 0.32900
C 	C 	0.06940 0.93220 0.64365 -0.14900
C 	C 	0.18960 0.93000 0.64036 0.10800
C 	C 	0.16724 0.84080 0.51999 0.08900
C 	C 	0.04705 0.84040 0.51685 -0.13900
C 	C 	0.99471 0.88777 0.58000 0.07600
C 	C 	0.86503 0.88894 0.58066 0.06100
C 	C 	0.81687 0.95578 0.62887 -0.12100
C 	C 	0.69638 0.95536 0.62717 0.06900
C 	C 	0.66541 0.82337 0.53411 0.09500
C 	C 	0.78438 0.82052 0.53286 -0.13300
C 	C 	0.57520 0.75380 0.19022 0.38800
C 	C 	0.26260 0.73160 0.31869 0.42500
C 	C 	0.38630 0.70623 0.33010 -0.42400
C 	C 	0.56240 0.82011 0.26306 -0.26400
C 	C 	0.48135 0.80011 0.32547 0.13300
C 	C 	0.48254 0.87721 0.39441 0.32900
C 	C 	0.93060 0.56780 0.14365 -0.14600
C 	C 	0.81040 0.57000 0.14036 0.10600
C 	C 	0.83276 0.65920 0.01999 0.08800
C 	C 	0.95295 0.65960 0.01685 -0.13600
C 	C 	0.00529 0.61223 0.08000 0.07300
C 	C 	0.13497 0.61106 0.08066 0.06300
C 	C 	0.18313 0.54422 0.12887 -0.12300
C 	C 	0.30362 0.54464 0.12717 0.06900
C 	C 	0.33459 0.67663 0.03411 0.09500
C 	C 	0.21562 0.67948 0.03286 -0.13400
C 	C 	0.57520 0.25380 0.30978 0.38800
C 	C 	0.26260 0.23160 0.18131 0.42500
C 	C 	0.38630 0.20623 0.16990 -0.42400
C 	C 	0.56240 0.32011 0.23694 -0.26400
C 	C 	0.48135 0.30011 0.17453 0.13300
C 	C 	0.48254 0.37721 0.10559 0.32900
C 	C 	0.93060 0.06780 0.35635 -0.14900
C 	C 	0.81040 0.07000 0.35964 0.10800
C 	C 	0.83276 0.15920 0.48001 0.08900
C 	C 	0.95295 0.15960 0.48315 -0.13900
C 	C 	0.00529 0.11223 0.42000 0.07600
C 	C 	0.13497 0.11106 0.41934 0.06100
C 	C 	0.18313 0.04422 0.37113 -0.12100
C 	C 	0.30362 0.04464 0.37283 0.06900
C 	C 	0.33459 0.17663 0.46589 0.09500
C 	C 	0.21562 0.17948 0.46714 -0.13300
C 	C 	0.42480 0.24620 0.80978 0.38800
C 	C 	0.73740 0.26840 0.68131 0.42500
C 	C 	0.61370 0.29377 0.66990 -0.42400
C 	C 	0.43760 0.17989 0.73694 -0.26400
C 	C 	0.51865 0.19989 0.67453 0.13300
C 	C 	0.51746 0.12279 0.60559 0.32900
C 	C 	0.06940 0.43220 0.85635 -0.14600
C 	C 	0.18960 0.43000 0.85964 0.10600
C 	C 	0.16724 0.34080 0.98001 0.08800
C 	C 	0.04705 0.34040 0.98315 -0.13600
C 	C 	0.99471 0.38777 0.92000 0.07300
C 	C 	0.86503 0.38894 0.91934 0.06300
C 	C 	0.81687 0.45578 0.87113 -0.12300
C 	C 	0.69638 0.45536 0.87283 0.06900
C 	C 	0.66541 0.32337 0.96589 0.09500
C 	C 	0.78438 0.32052 0.96714 -0.13400
N 	N 	0.61990 0.88936 0.57928 -0.23600
N 	N 	0.23948 0.88807 0.57974 -0.23800
N 	N 	0.38010 0.61064 0.07928 -0.23600
N 	N 	0.76052 0.61193 0.07974 -0.23700
N 	N 	0.38010 0.11064 0.42072 -0.23600
N 	N 	0.76052 0.11193 0.42026 -0.23800
N 	N 	0.61990 0.38936 0.92072 -0.23600
N 	N 	0.23948 0.38807 0.92026 -0.23700
O 	O 	0.82474 0.83876 0.84373 -0.25300
O 	O 	0.75163 0.69085 0.78926 -0.28300
O 	O 	0.41652 0.71169 0.61810 -0.35300
O 	O 	0.42255 0.83870 0.70521 -0.41100
O 	O 	0.58283 0.65173 0.95734 -0.45200
O 	O 	0.45077 0.53731 0.88545 -0.46400
O 	O 	0.17526 0.66124 0.34373 -0.25300
O 	O 	0.24837 0.80915 0.28926 -0.28300
O 	O 	0.58348 0.78831 0.11810 -0.35300
O 	O 	0.57745 0.66130 0.20521 -0.41100
O 	O 	0.41717 0.84827 0.45734 -0.45200
O 	O 	0.54923 0.96269 0.38545 -0.46400
O 	O 	0.17526 0.16124 0.15627 -0.25300
O 	O 	0.24837 0.30915 0.21074 -0.28300
O 	O 	0.58348 0.28831 0.38190 -0.35300
O 	O 	0.57745 0.16130 0.29479 -0.41100
O 	O 	0.41717 0.34827 0.04266 -0.45200
O 	O 	0.54923 0.46269 0.11455 -0.46400
O 	O 	0.82474 0.33876 0.65627 -0.25300
O 	O 	0.75163 0.19085 0.71074 -0.28300
O 	O 	0.41652 0.21169 0.88190 -0.35300
O 	O 	0.42255 0.33870 0.79479 -0.41100
O 	O 	0.58283 0.15173 0.54266 -0.45200
O 	O 	0.45077 0.03731 0.61455 -0.46400
