data_crystal

_cell_length_a 13.84430
_cell_length_b 14.56150
_cell_length_c 23.96590
_cell_angle_alpha 79.22990
_cell_angle_beta  73.21190
_cell_angle_gamma 61.61640

_symmetry_space_group_name_	'P 1'
_symmetry_space_group_name_H-M	'P 1'

loop_
_symmetry_equiv_pos_as_xyz
  x,y,z

loop_
_atom_site_label
_atom_site_type_symbol
_atom_site_fract_x
_atom_site_fract_y
_atom_site_fract_z
_atom_site_charge
Zn	Zn	0.26978 0.08502 0.95488 1.23000
Zn	Zn	0.30968 0.41498 0.54512 1.23000
Zn	Zn	0.73022 0.91498 0.04512 1.22900
Zn	Zn	0.69032 0.58502 0.45488 1.23000
Zn	Zn	0.50000 0.00000 -0.00000 1.21700
Zn	Zn	0.50000 0.50000 0.50000 1.23600
Si	Si	0.64702 0.44778 0.83480 0.77600
Si	Si	0.92960 0.05222 0.66520 0.71900
Si	Si	0.35298 0.55222 0.16520 0.77800
Si	Si	0.07040 0.94778 0.33480 0.82300
H 	H 	0.26260 0.17020 0.86420 0.20400
H 	H 	0.47050 0.83050 0.82710 0.08200
H 	H 	0.55450 0.66790 0.78890 -0.00600
H 	H 	0.59350 0.52900 0.94780 -0.00600
H 	H 	0.51540 0.69330 0.98530 0.09100
H 	H 	0.55210 0.15600 0.88300 0.07200
H 	H 	0.41490 0.50770 0.91050 -0.00400
H 	H 	0.30020 0.42580 0.94660 0.08900
H 	H 	0.80460 0.45370 0.71930 -0.00700
H 	H 	0.78900 0.49060 0.62280 0.07500
H 	H 	0.46870 0.52740 0.67340 0.07500
H 	H 	0.48570 0.48780 0.77000 -0.00400
H 	H 	0.77030 0.25240 0.90020 0.00000
H 	H 	0.94790 0.15880 0.92100 0.06700
H 	H 	0.03710 0.37430 0.81690 0.06700
H 	H 	0.85790 0.46460 0.79780 0.00000
H 	H 	0.66820 0.23690 0.84310 -0.01300
H 	H 	0.29700 0.32980 0.63580 0.20800
H 	H 	0.12810 0.66950 0.67290 0.07000
H 	H 	0.01130 0.83210 0.71110 0.00800
H 	H 	0.07030 0.97100 0.55220 0.00500
H 	H 	0.19400 0.80670 0.51470 0.07100
H 	H 	0.59110 0.34400 0.61700 0.06900
H 	H 	0.83310 0.99230 0.58950 0.04500
H 	H 	0.67260 0.07420 0.55340 0.05800
H 	H 	0.97760 0.04630 0.78070 -0.00900
H 	H 	0.90240 0.00940 0.87720 0.08000
H 	H 	0.66950 0.97260 0.82660 0.06900
H 	H 	0.74350 0.01220 0.73000 0.00500
H 	H 	0.92290 0.24760 0.59980 -0.00700
H 	H 	0.02770 0.34120 0.57900 0.07200
H 	H 	0.22830 0.12570 0.68310 0.07400
H 	H 	0.12030 0.03540 0.70220 -0.01100
H 	H 	0.74820 0.26310 0.65690 0.00000
H 	H 	0.73740 0.82980 0.13580 0.21000
H 	H 	0.52950 0.16950 0.17290 0.06900
H 	H 	0.44550 0.33210 0.21110 -0.00800
H 	H 	0.40650 0.47100 0.05220 -0.01900
H 	H 	0.48460 0.30670 0.01470 0.06300
H 	H 	0.44790 0.84400 0.11700 0.08700
H 	H 	0.58510 0.49230 0.08950 -0.01300
H 	H 	0.69980 0.57420 0.05340 0.07800
H 	H 	0.19540 0.54630 0.28070 -0.00900
H 	H 	0.21100 0.50940 0.37720 0.07200
H 	H 	0.53130 0.47260 0.32660 0.07300
H 	H 	0.51430 0.51220 0.23000 -0.00500
H 	H 	0.22970 0.74760 0.09980 -0.01300
H 	H 	0.05210 0.84120 0.07900 0.07500
H 	H 	0.96290 0.62570 0.18310 0.09000
H 	H 	0.14210 0.53540 0.20220 -0.01500
H 	H 	0.33180 0.76310 0.15690 -0.01200
H 	H 	0.70300 0.67020 0.36420 0.20800
H 	H 	0.87190 0.33050 0.32710 0.08000
H 	H 	0.98870 0.16790 0.28890 -0.02000
H 	H 	0.92970 0.02900 0.44780 -0.02800
H 	H 	0.80600 0.19330 0.48530 0.08200
H 	H 	0.40890 0.65600 0.38300 0.08900
H 	H 	0.16690 0.00770 0.41050 -0.05400
H 	H 	0.32740 0.92580 0.44660 0.10600
H 	H 	0.02240 0.95370 0.21930 -0.00800
H 	H 	0.09760 0.99060 0.12280 0.06700
H 	H 	0.33050 0.02740 0.17340 0.07800
H 	H 	0.25650 0.98780 0.27000 -0.01200
H 	H 	0.07710 0.75240 0.40020 -0.00100
H 	H 	0.97230 0.65880 0.42100 0.06800
H 	H 	0.77170 0.87430 0.31690 0.08000
H 	H 	0.87970 0.96460 0.29780 0.00000
H 	H 	0.25180 0.73690 0.34310 -0.02300
C 	C 	0.43738 0.88150 0.93434 0.34500
C 	C 	0.48929 0.77647 0.90955 -0.00500
C 	C 	0.49796 0.76883 0.85165 -0.09800
C 	C 	0.54653 0.67187 0.82927 0.10000
C 	C 	0.58361 0.58067 0.86391 -0.27500
C 	C 	0.57030 0.59030 0.92250 0.09900
C 	C 	0.52330 0.68850 0.94510 -0.09600
C 	C 	0.41683 0.28193 0.92121 0.00100
C 	C 	0.52461 0.22770 0.88888 -0.10000
C 	C 	0.55573 0.38162 0.87152 -0.27500
C 	C 	0.44375 0.43595 0.90415 0.09400
C 	C 	0.37640 0.38663 0.92677 -0.10200
C 	C 	0.34226 0.22887 0.94701 0.30300
C 	C 	0.73590 0.46847 0.71033 0.08700
C 	C 	0.72651 0.49069 0.65269 -0.08600
C 	C 	0.62835 0.51262 0.63828 -0.03000
C 	C 	0.53727 0.51212 0.68254 -0.08500
C 	C 	0.54764 0.48899 0.74013 0.07900
C 	C 	0.64672 0.46755 0.75481 -0.26800
C 	C 	0.79313 0.36853 0.84701 -0.26200
C 	C 	0.00938 0.25854 0.87050 -0.06600
C 	C 	0.12472 0.19983 0.88313 0.43100
C 	C 	0.82498 0.27754 0.88310 0.07500
C 	C 	0.93050 0.22060 0.89600 -0.05900
C 	C 	0.98249 0.34918 0.83404 -0.04400
C 	C 	0.87541 0.40281 0.82277 0.06900
C 	C 	0.61678 0.53457 0.57627 0.36200
C 	C 	0.59359 0.27630 0.86472 0.09600
C 	C 	0.25322 0.61850 0.56566 0.35600
C 	C 	0.17531 0.72353 0.59045 -0.03100
C 	C 	0.11844 0.73117 0.64835 -0.07400
C 	C 	0.04767 0.82813 0.67073 0.07000
C 	C 	0.02819 0.91933 0.63609 -0.23200
C 	C 	0.08310 0.90970 0.57750 0.06700
C 	C 	0.15690 0.81150 0.55490 -0.07300
C 	C 	0.61997 0.21807 0.57879 -0.03500
C 	C 	0.64119 0.27230 0.61112 -0.07400
C 	C 	0.80887 0.11838 0.62848 -0.23300
C 	C 	0.78385 0.06405 0.59585 -0.00000
C 	C 	0.68980 0.11337 0.57323 -0.05100
C 	C 	0.51814 0.27113 0.55299 0.31100
C 	C 	0.91470 0.03153 0.78967 0.08600
C 	C 	0.86989 0.00931 0.84731 -0.12500
C 	C 	0.77925 0.98738 0.86172 0.00100
C 	C 	0.73193 0.98788 0.81746 -0.04400
C 	C 	0.77676 0.01101 0.75987 0.02800
C 	C 	0.86908 0.03245 0.74519 -0.24900
C 	C 	0.00867 0.13147 0.65299 -0.26900
C 	C 	0.13842 0.24146 0.62950 -0.04500
C 	C 	0.20768 0.30017 0.61687 0.42500
C 	C 	0.98562 0.22246 0.61690 0.08900
C 	C 	0.04710 0.27940 0.60400 -0.08500
C 	C 	0.16571 0.15082 0.66596 -0.07400
C 	C 	0.10099 0.09719 0.67723 0.07800
C 	C 	0.72762 0.96543 0.92373 0.35500
C 	C 	0.73461 0.22370 0.63528 0.06300
C 	C 	0.56262 0.11850 0.06566 0.35400
C 	C 	0.51071 0.22353 0.09045 -0.02700
C 	C 	0.50204 0.23117 0.14835 -0.09000
C 	C 	0.45347 0.32813 0.17073 0.08900
C 	C 	0.41639 0.41933 0.13609 -0.27500
C 	C 	0.42970 0.40970 0.07750 0.08600
C 	C 	0.47670 0.31150 0.05490 -0.09100
C 	C 	0.58317 0.71807 0.07879 -0.00300
C 	C 	0.47539 0.77230 0.11112 -0.11100
C 	C 	0.44427 0.61838 0.12848 -0.28300
C 	C 	0.55625 0.56405 0.09585 0.09100
C 	C 	0.62360 0.61337 0.07323 -0.11200
C 	C 	0.65774 0.77113 0.05299 0.29400
C 	C 	0.26410 0.53153 0.28967 0.08600
C 	C 	0.27349 0.50931 0.34731 -0.08700
C 	C 	0.37165 0.48738 0.36172 -0.03200
C 	C 	0.46273 0.48788 0.31746 -0.08600
C 	C 	0.45236 0.51101 0.25987 0.07900
C 	C 	0.35328 0.53245 0.24519 -0.26900
C 	C 	0.20687 0.63147 0.15299 -0.28500
C 	C 	0.99062 0.74146 0.12950 -0.02100
C 	C 	0.87528 0.80017 0.11687 0.42000
C 	C 	0.17502 0.72246 0.11690 0.09800
C 	C 	0.06950 0.77940 0.10400 -0.10200
C 	C 	0.01751 0.65082 0.16596 -0.10500
C 	C 	0.12459 0.59719 0.17723 0.10000
C 	C 	0.38322 0.46543 0.42373 0.36100
C 	C 	0.40641 0.72370 0.13528 0.10100
C 	C 	0.74678 0.38150 0.43434 0.34600
C 	C 	0.82469 0.27647 0.40955 -0.00500
C 	C 	0.88156 0.26883 0.35165 -0.11200
C 	C 	0.95233 0.17187 0.32927 0.11600
C 	C 	0.97181 0.08067 0.36391 -0.31300
C 	C 	0.91690 0.09030 0.42250 0.11300
C 	C 	0.84310 0.18850 0.44510 -0.11100
C 	C 	0.38003 0.78193 0.42121 0.02800
C 	C 	0.35881 0.72770 0.38888 -0.13300
C 	C 	0.19113 0.88162 0.37152 -0.31700
C 	C 	0.21615 0.93595 0.40415 0.17300
C 	C 	0.31020 0.88663 0.42677 -0.15500
C 	C 	0.48186 0.72887 0.44701 0.28900
C 	C 	0.08530 0.96847 0.21033 0.08700
C 	C 	0.13011 0.99069 0.15269 -0.05600
C 	C 	0.22075 0.01262 0.13828 -0.05600
C 	C 	0.26807 0.01212 0.18254 -0.12100
C 	C 	0.22324 0.98899 0.24013 0.12200
C 	C 	0.13092 0.96755 0.25481 -0.28400
C 	C 	0.99133 0.86853 0.34701 -0.26500
C 	C 	0.86158 0.75854 0.37050 -0.04900
C 	C 	0.79232 0.69983 0.38313 0.42800
C 	C 	0.01438 0.77754 0.38310 0.06900
C 	C 	0.95290 0.72060 0.39600 -0.06300
C 	C 	0.83429 0.84918 0.33404 -0.06600
C 	C 	0.89901 0.90281 0.32277 0.08300
C 	C 	0.27238 0.03457 0.07627 0.36400
C 	C 	0.26539 0.77630 0.36472 0.12800
O 	O 	0.35857 0.95475 0.91301 -0.43400
O 	O 	0.47328 0.88816 0.97488 -0.41900
O 	O 	0.69417 0.54860 0.53806 -0.45100
O 	O 	0.53109 0.53656 0.56722 -0.45600
O 	O 	0.24207 0.27790 0.96996 -0.29100
O 	O 	0.38997 0.12776 0.94232 -0.53100
O 	O 	0.12770 0.15345 0.93235 -0.47800
O 	O 	0.20510 0.20803 0.85077 -0.49400
O 	O 	0.22633 0.54525 0.58699 -0.45700
O 	O 	0.33632 0.61184 0.52512 -0.44900
O 	O 	0.78083 0.95140 0.96194 -0.41900
O 	O 	0.63487 0.96344 0.93278 -0.43100
O 	O 	0.48993 0.22210 0.53004 -0.30800
O 	O 	0.46005 0.37224 0.55768 -0.53400
O 	O 	0.21350 0.34655 0.56765 -0.48000
O 	O 	0.26390 0.29197 0.64923 -0.49300
O 	O 	0.64143 0.04525 0.08699 -0.47500
O 	O 	0.52672 0.11184 0.02512 -0.47000
O 	O 	0.30583 0.45140 0.46194 -0.45400
O 	O 	0.46891 0.46344 0.43278 -0.45800
O 	O 	0.75793 0.72210 0.03004 -0.31000
O 	O 	0.61003 0.87224 0.05768 -0.52900
O 	O 	0.87230 0.84655 0.06765 -0.48000
O 	O 	0.79490 0.79197 0.14923 -0.48900
O 	O 	0.77367 0.45475 0.41301 -0.45500
O 	O 	0.66368 0.38816 0.47488 -0.44800
O 	O 	0.21917 0.04860 0.03806 -0.48000
O 	O 	0.36513 0.03656 0.06722 -0.47300
O 	O 	0.51007 0.77790 0.46996 -0.29300
O 	O 	0.53995 0.62776 0.44232 -0.52900
O 	O 	0.78650 0.65345 0.43235 -0.47800
O 	O 	0.73610 0.70803 0.35077 -0.49100
