data_crystal

_cell_length_a 9.62990
_cell_length_b 9.76980
_cell_length_c 24.56390
_cell_angle_alpha 90.00000
_cell_angle_beta  90.00000
_cell_angle_gamma 90.00000

_symmetry_space_group_name_	'P 1'
_symmetry_space_group_name_H-M	'P 1'

loop_
_symmetry_equiv_pos_as_xyz
  x,y,z

loop_
_atom_site_label
_atom_site_type_symbol
_atom_site_fract_x
_atom_site_fract_y
_atom_site_fract_z
_atom_site_charge
Zn	Zn	0.50017 0.88751 0.98318 1.21600
Zn	Zn	0.36874 0.87930 0.50282 1.22000
Zn	Zn	0.99983 0.11249 0.48318 1.21800
Zn	Zn	0.13126 0.12070 0.00282 1.22100
Zn	Zn	0.49983 0.38751 0.51682 1.21800
Zn	Zn	0.63126 0.37930 0.99718 1.22200
Zn	Zn	0.00017 0.61249 0.01682 1.21700
Zn	Zn	0.86874 0.62070 0.49718 1.22200
P 	P 	0.72980 0.66146 0.94700 0.46300
P 	P 	0.41945 0.17008 0.93599 0.46300
P 	P 	0.77020 0.33854 0.44700 0.46300
P 	P 	0.08055 0.82992 0.43599 0.46400
P 	P 	0.27020 0.16146 0.55300 0.46300
P 	P 	0.58055 0.67008 0.56401 0.46300
P 	P 	0.22980 0.83854 0.05300 0.46300
P 	P 	0.91945 0.32992 0.06401 0.46600
H 	H 	0.74990 0.84900 0.05620 -0.02100
H 	H 	0.83210 0.92880 0.13820 0.10000
H 	H 	0.51780 0.20070 0.14130 0.10000
H 	H 	0.44240 0.11380 0.05970 -0.04100
H 	H 	0.83530 0.11260 0.20700 0.11000
H 	H 	0.71900 0.22940 0.20440 0.11000
H 	H 	0.55750 0.07330 0.24600 -0.00100
H 	H 	0.68020 0.96370 0.25170 0.00100
H 	H 	0.68300 0.22640 0.30400 0.11300
H 	H 	0.80220 0.11370 0.31070 0.11400
H 	H 	0.78500 0.95850 0.38510 0.10700
H 	H 	0.66540 0.87240 0.45900 -0.02900
H 	H 	0.32660 0.06530 0.41320 -0.03600
H 	H 	0.43820 0.15490 0.33830 0.10300
H 	H 	0.80170 0.69030 0.90200 -0.04500
H 	H 	0.39010 0.22330 0.88850 -0.04500
H 	H 	0.75010 0.15100 0.55620 -0.02300
H 	H 	0.66790 0.07120 0.63820 0.10000
H 	H 	0.98220 0.79930 0.64130 0.10100
H 	H 	0.05760 0.88620 0.55970 -0.04200
H 	H 	0.66470 0.88740 0.70700 0.11000
H 	H 	0.78100 0.77060 0.70440 0.11000
H 	H 	0.94250 0.92670 0.74600 -0.00100
H 	H 	0.81980 0.03630 0.75170 0.00100
H 	H 	0.81700 0.77360 0.80400 0.11300
H 	H 	0.69780 0.88630 0.81070 0.11300
H 	H 	0.71500 0.04150 0.88510 0.10700
H 	H 	0.83460 0.12760 0.95900 -0.02800
H 	H 	0.17340 0.93470 0.91320 -0.03600
H 	H 	0.06180 0.84510 0.83830 0.10200
H 	H 	0.69830 0.30970 0.40200 -0.04500
H 	H 	0.10990 0.77670 0.38850 -0.04500
H 	H 	0.25010 0.34900 0.44380 -0.02300
H 	H 	0.16790 0.42880 0.36180 0.10100
H 	H 	0.48220 0.70070 0.35870 0.10200
H 	H 	0.55760 0.61380 0.44030 -0.04200
H 	H 	0.16470 0.61260 0.29300 0.11200
H 	H 	0.28100 0.72940 0.29560 0.11200
H 	H 	0.44250 0.57330 0.25400 -0.00300
H 	H 	0.31980 0.46370 0.24830 -0.00300
H 	H 	0.31700 0.72640 0.19600 0.11500
H 	H 	0.19780 0.61370 0.18930 0.11500
H 	H 	0.21500 0.45850 0.11490 0.10800
H 	H 	0.33460 0.37240 0.04100 -0.03000
H 	H 	0.67340 0.56530 0.08680 -0.03700
H 	H 	0.56180 0.65490 0.16170 0.10400
H 	H 	0.19830 0.19030 0.59800 -0.04500
H 	H 	0.60990 0.72330 0.61150 -0.04500
H 	H 	0.24990 0.65100 0.94380 -0.02400
H 	H 	0.33210 0.57120 0.86180 0.10100
H 	H 	0.01780 0.29930 0.85870 0.10300
H 	H 	0.94240 0.38620 0.94030 -0.04200
H 	H 	0.33530 0.38740 0.79300 0.11300
H 	H 	0.21900 0.27060 0.79560 0.11300
H 	H 	0.05750 0.42670 0.75400 -0.00300
H 	H 	0.18020 0.53630 0.74830 -0.00400
H 	H 	0.18300 0.27360 0.69600 0.11600
H 	H 	0.30220 0.38630 0.68930 0.11600
H 	H 	0.28500 0.54150 0.61490 0.10900
H 	H 	0.16540 0.62760 0.54100 -0.03000
H 	H 	0.82660 0.43470 0.58680 -0.03700
H 	H 	0.93820 0.34510 0.66170 0.10500
H 	H 	0.30170 0.80970 0.09800 -0.04500
H 	H 	0.89010 0.27670 0.11150 -0.04500
C 	C 	0.70170 0.92110 0.07389 0.10700
C 	C 	0.75150 0.96910 0.12271 -0.21600
C 	C 	0.68590 0.07480 0.14954 0.18900
C 	C 	0.56750 0.12800 0.12459 -0.22200
C 	C 	0.52290 0.07550 0.07601 0.10600
C 	C 	0.73440 0.12920 0.20331 -0.29900
C 	C 	0.65890 0.06280 0.25106 0.09000
C 	C 	0.70120 0.12670 0.30537 -0.30500
C 	C 	0.62550 0.06690 0.35331 0.20100
C 	C 	0.69010 0.98190 0.39006 -0.23300
C 	C 	0.61830 0.93040 0.43408 0.11300
C 	C 	0.42140 0.04270 0.40730 0.11000
C 	C 	0.48740 0.09700 0.36262 -0.22900
C 	C 	0.79830 0.07890 0.57389 0.10800
C 	C 	0.74850 0.03090 0.62271 -0.21900
C 	C 	0.81410 0.92520 0.64954 0.19200
C 	C 	0.93250 0.87200 0.62459 -0.22500
C 	C 	0.97710 0.92450 0.57601 0.10900
C 	C 	0.76560 0.87080 0.70331 -0.30100
C 	C 	0.84110 0.93720 0.75106 0.09000
C 	C 	0.79880 0.87330 0.80537 -0.30400
C 	C 	0.87450 0.93310 0.85331 0.20000
C 	C 	0.80990 0.01810 0.89006 -0.23000
C 	C 	0.88170 0.06960 0.93408 0.11200
C 	C 	0.07860 0.95730 0.90730 0.10500
C 	C 	0.01260 0.90300 0.86262 -0.22800
C 	C 	0.29830 0.42110 0.42611 0.11000
C 	C 	0.24850 0.46910 0.37729 -0.22400
C 	C 	0.31410 0.57480 0.35046 0.19800
C 	C 	0.43250 0.62800 0.37541 -0.22800
C 	C 	0.47710 0.57550 0.42399 0.11200
C 	C 	0.26560 0.62920 0.29669 -0.30700
C 	C 	0.34110 0.56280 0.24894 0.10000
C 	C 	0.29880 0.62670 0.19463 -0.31100
C 	C 	0.37450 0.56690 0.14669 0.20600
C 	C 	0.30990 0.48190 0.10994 -0.23700
C 	C 	0.38170 0.43040 0.06592 0.11500
C 	C 	0.57860 0.54270 0.09270 0.11300
C 	C 	0.51260 0.59700 0.13738 -0.23200
C 	C 	0.20170 0.57890 0.92611 0.11000
C 	C 	0.25150 0.53090 0.87729 -0.22500
C 	C 	0.18590 0.42520 0.85046 0.19900
C 	C 	0.06750 0.37200 0.87541 -0.22800
C 	C 	0.02290 0.42450 0.92399 0.11200
C 	C 	0.23440 0.37080 0.79669 -0.30800
C 	C 	0.15890 0.43720 0.74894 0.10100
C 	C 	0.20120 0.37330 0.69463 -0.31300
C 	C 	0.12550 0.43310 0.64669 0.21000
C 	C 	0.19010 0.51810 0.60994 -0.24000
C 	C 	0.11830 0.56960 0.56592 0.11700
C 	C 	0.92140 0.45730 0.59270 0.11400
C 	C 	0.98740 0.40300 0.63738 -0.23500
N 	N 	0.58743 0.97266 0.05036 -0.28800
N 	N 	0.48375 0.95993 0.44278 -0.29600
N 	N 	0.91257 0.02734 0.55036 -0.29000
N 	N 	0.01625 0.04007 0.94278 -0.29300
N 	N 	0.41257 0.47266 0.44964 -0.29100
N 	N 	0.51625 0.45993 0.05722 -0.29700
N 	N 	0.08743 0.52734 0.94964 -0.29100
N 	N 	0.98375 0.54007 0.55722 -0.29800
O 	O 	0.60465 0.75204 0.94586 -0.47300
O 	O 	0.44275 0.01771 0.92669 -0.45400
O 	O 	0.82523 0.69245 0.99414 -0.48500
O 	O 	0.69166 0.51051 0.94314 -0.46300
O 	O 	0.29817 0.20078 0.97269 -0.47800
O 	O 	0.55135 0.23743 0.95510 -0.47800
O 	O 	0.89535 0.24796 0.44586 -0.47300
O 	O 	0.05725 0.98229 0.42669 -0.45600
O 	O 	0.67477 0.30755 0.49414 -0.48500
O 	O 	0.80834 0.48949 0.44314 -0.46300
O 	O 	0.20183 0.79922 0.47269 -0.48000
O 	O 	0.94865 0.76257 0.45510 -0.47800
O 	O 	0.39535 0.25204 0.55414 -0.47200
O 	O 	0.55725 0.51771 0.57331 -0.45600
O 	O 	0.17477 0.19245 0.50586 -0.48400
O 	O 	0.30834 0.01051 0.55686 -0.46200
O 	O 	0.70183 0.70078 0.52731 -0.48000
O 	O 	0.44865 0.73743 0.54490 -0.47800
O 	O 	0.10465 0.74796 0.05414 -0.47300
O 	O 	0.94275 0.48229 0.07331 -0.45400
O 	O 	0.32523 0.80755 0.00586 -0.48400
O 	O 	0.19166 0.98949 0.05686 -0.46300
O 	O 	0.79817 0.29922 0.02731 -0.47900
O 	O 	0.05135 0.26257 0.04490 -0.48100
