data_crystal

_cell_length_a 6.55680
_cell_length_b 15.07800
_cell_length_c 20.54300
_cell_angle_alpha 90.00000
_cell_angle_beta  90.00000
_cell_angle_gamma 90.00000

_symmetry_space_group_name_	'P 1'
_symmetry_space_group_name_H-M	'P 1'

loop_
_symmetry_equiv_pos_as_xyz
  x,y,z

loop_
_atom_site_label
_atom_site_type_symbol
_atom_site_fract_x
_atom_site_fract_y
_atom_site_fract_z
_atom_site_charge
Zn	Zn	0.85132 0.48638 0.81217 1.20900
Zn	Zn	0.64868 0.51362 0.31217 1.20900
Zn	Zn	0.14868 0.98638 0.68783 1.20700
Zn	Zn	0.35132 0.01362 0.18783 1.20700
H 	H 	0.20170 0.40320 0.72350 0.00200
H 	H 	0.87940 0.28140 0.85760 0.02500
H 	H 	0.13180 0.17270 0.81770 0.03100
H 	H 	0.37110 0.26660 0.67190 0.04800
H 	H 	0.32800 0.17390 0.70200 0.04100
H 	H 	0.60880 0.30020 0.75300 0.06800
H 	H 	0.55470 0.21290 0.78940 0.07100
H 	H 	0.80400 0.08790 0.76960 0.00800
H 	H 	0.76960 0.26610 0.61710 0.03400
H 	H 	0.04990 0.15970 0.60010 0.01600
H 	H 	0.04140 0.46360 0.14390 0.14600
H 	H 	0.92690 0.54230 0.10680 0.13500
H 	H 	0.82870 0.35980 0.09390 0.01300
H 	H 	0.70730 0.43780 0.05810 0.01500
H 	H 	0.01880 0.47610 0.00200 0.05600
H 	H 	0.92780 0.38180 0.98170 0.05500
H 	H 	0.26390 0.40700 0.06820 0.07300
H 	H 	0.16860 0.31180 0.05200 0.07000
H 	H 	0.26930 0.32830 0.94070 0.01600
H 	H 	0.46220 0.33010 0.98840 0.01100
H 	H 	0.27840 0.48090 0.92860 0.12600
H 	H 	0.44770 0.49030 0.98410 0.14100
H 	H 	0.29830 0.59680 0.22350 0.00200
H 	H 	0.62060 0.71860 0.35760 0.02400
H 	H 	0.36820 0.82730 0.31770 0.03200
H 	H 	0.12890 0.73340 0.17190 0.04800
H 	H 	0.17200 0.82610 0.20200 0.04200
H 	H 	0.89120 0.69980 0.25300 0.06800
H 	H 	0.94530 0.78710 0.28940 0.07100
H 	H 	0.69600 0.91210 0.26960 0.00800
H 	H 	0.73040 0.73390 0.11710 0.03400
H 	H 	0.45010 0.84030 0.10010 0.01800
H 	H 	0.45860 0.53640 0.64390 0.14600
H 	H 	0.57310 0.45770 0.60680 0.13500
H 	H 	0.67130 0.64020 0.59390 0.01300
H 	H 	0.79270 0.56220 0.55810 0.01500
H 	H 	0.48120 0.52390 0.50200 0.05600
H 	H 	0.57220 0.61820 0.48170 0.05500
H 	H 	0.23610 0.59300 0.56820 0.07300
H 	H 	0.33140 0.68820 0.55200 0.07000
H 	H 	0.23070 0.67170 0.44070 0.01600
H 	H 	0.03780 0.66990 0.48840 0.01000
H 	H 	0.22160 0.51910 0.42860 0.12600
H 	H 	0.05230 0.50970 0.48410 0.14100
H 	H 	0.79830 0.90320 0.77650 0.00100
H 	H 	0.12060 0.78140 0.64240 0.02400
H 	H 	0.86820 0.67270 0.68230 0.03200
H 	H 	0.62890 0.76660 0.82810 0.04800
H 	H 	0.67200 0.67390 0.79800 0.04100
H 	H 	0.39120 0.80020 0.74700 0.06800
H 	H 	0.44530 0.71290 0.71060 0.07100
H 	H 	0.19600 0.58790 0.73040 0.00800
H 	H 	0.23040 0.76610 0.88290 0.03400
H 	H 	0.95010 0.65970 0.89990 0.01500
H 	H 	0.95860 0.96360 0.35610 0.14600
H 	H 	0.07310 0.04230 0.39320 0.13300
H 	H 	0.17130 0.85980 0.40610 0.01300
H 	H 	0.29270 0.93780 0.44190 0.01500
H 	H 	0.98120 0.97610 0.49800 0.05700
H 	H 	0.07220 0.88180 0.51830 0.05500
H 	H 	0.73610 0.90700 0.43180 0.07200
H 	H 	0.83140 0.81180 0.44800 0.07000
H 	H 	0.73070 0.82830 0.55930 0.01600
H 	H 	0.53780 0.83010 0.51160 0.01100
H 	H 	0.72160 0.98090 0.57140 0.12500
H 	H 	0.55230 0.99030 0.51590 0.14100
H 	H 	0.70170 0.09680 0.27650 0.00200
H 	H 	0.37940 0.21860 0.14240 0.02400
H 	H 	0.63180 0.32730 0.18230 0.03200
H 	H 	0.87110 0.23340 0.32810 0.04800
H 	H 	0.82800 0.32610 0.29800 0.04100
H 	H 	0.10880 0.19980 0.24700 0.06800
H 	H 	0.05470 0.28710 0.21060 0.07100
H 	H 	0.30400 0.41210 0.23040 0.00800
H 	H 	0.26960 0.23390 0.38290 0.03400
H 	H 	0.54990 0.34030 0.39990 0.01700
H 	H 	0.54140 0.03640 0.85610 0.14300
H 	H 	0.42690 0.95770 0.89320 0.12800
H 	H 	0.32870 0.14020 0.90610 0.01600
H 	H 	0.20730 0.06220 0.94190 0.01900
H 	H 	0.51880 0.02390 0.99800 0.05500
H 	H 	0.42780 0.11820 0.01830 0.05000
H 	H 	0.76390 0.09300 0.93180 0.07300
H 	H 	0.66860 0.18820 0.94800 0.07000
H 	H 	0.76930 0.17170 0.05930 0.01700
H 	H 	0.96220 0.16990 0.01160 0.01100
H 	H 	0.77840 0.01910 0.07140 0.12300
H 	H 	0.94770 0.00970 0.01590 0.13800
C 	C 	0.15190 0.35990 0.75390 0.08800
C 	C 	0.98550 0.29500 0.82768 0.00400
C 	C 	0.11910 0.23630 0.80446 0.01300
C 	C 	0.36210 0.23430 0.71200 -0.04000
C 	C 	0.56730 0.23970 0.74720 -0.08500
C 	C 	0.81940 0.11640 0.72810 0.07200
C 	C 	0.79520 0.21030 0.64199 -0.01500
C 	C 	0.94980 0.15430 0.63326 0.01500
C 	C 	0.75950 0.49211 0.18352 0.41000
C 	C 	0.90760 0.48310 0.12668 -0.36300
C 	C 	0.84280 0.41970 0.07468 0.05800
C 	C 	0.99240 0.41510 0.01773 -0.12400
C 	C 	0.19490 0.37170 0.03403 -0.14600
C 	C 	0.33830 0.36300 0.97513 0.05900
C 	C 	0.40000 0.45230 0.94790 -0.36000
C 	C 	0.56550 0.44770 0.89697 0.40400
C 	C 	0.34810 0.64010 0.25390 0.08800
C 	C 	0.51450 0.70500 0.32768 0.00500
C 	C 	0.38090 0.76370 0.30446 0.01200
C 	C 	0.13790 0.76570 0.21200 -0.04100
C 	C 	0.93270 0.76030 0.24720 -0.08400
C 	C 	0.68060 0.88360 0.22810 0.07200
C 	C 	0.70480 0.78970 0.14199 -0.01400
C 	C 	0.55020 0.84570 0.13326 0.01400
C 	C 	0.74050 0.50789 0.68352 0.41100
C 	C 	0.59240 0.51690 0.62668 -0.36300
C 	C 	0.65720 0.58030 0.57468 0.05800
C 	C 	0.50760 0.58490 0.51773 -0.12400
C 	C 	0.30510 0.62830 0.53403 -0.14500
C 	C 	0.16170 0.63700 0.47513 0.05900
C 	C 	0.10000 0.54770 0.44790 -0.36000
C 	C 	0.93450 0.55230 0.39697 0.40500
C 	C 	0.84810 0.85990 0.74610 0.08800
C 	C 	0.01450 0.79500 0.67232 0.00500
C 	C 	0.88090 0.73630 0.69554 0.01200
C 	C 	0.63790 0.73430 0.78800 -0.04000
C 	C 	0.43270 0.73970 0.75280 -0.08500
C 	C 	0.18060 0.61640 0.77190 0.07200
C 	C 	0.20480 0.71030 0.85801 -0.01600
C 	C 	0.05020 0.65430 0.86674 0.01500
C 	C 	0.24050 0.99211 0.31648 0.41000
C 	C 	0.09240 0.98310 0.37332 -0.36000
C 	C 	0.15720 0.91970 0.42532 0.05800
C 	C 	0.00760 0.91510 0.48227 -0.12500
C 	C 	0.80510 0.87170 0.46597 -0.14400
C 	C 	0.66170 0.86300 0.52487 0.05700
C 	C 	0.60000 0.95230 0.55210 -0.35900
C 	C 	0.43450 0.94770 0.60303 0.40300
C 	C 	0.65190 0.14010 0.24610 0.08800
C 	C 	0.48550 0.20500 0.17232 0.00500
C 	C 	0.61910 0.26370 0.19554 0.01200
C 	C 	0.86210 0.26570 0.28800 -0.04000
C 	C 	0.06730 0.26030 0.25280 -0.08500
C 	C 	0.31940 0.38360 0.27190 0.07200
C 	C 	0.29520 0.28970 0.35801 -0.01500
C 	C 	0.44980 0.34570 0.36674 0.01300
C 	C 	0.25950 0.00789 0.81648 0.40700
C 	C 	0.40760 0.01690 0.87332 -0.35000
C 	C 	0.34280 0.08030 0.92532 0.04900
C 	C 	0.49240 0.08490 0.98227 -0.11400
C 	C 	0.69490 0.12830 0.96597 -0.14500
C 	C 	0.83830 0.13700 0.02487 0.05400
C 	C 	0.90000 0.04770 0.05210 -0.35400
C 	C 	0.06550 0.05230 0.10303 0.39800
N 	N 	0.02200 0.37686 0.80272 -0.26200
N 	N 	0.20380 0.27360 0.75360 -0.11800
N 	N 	0.72280 0.19000 0.70890 -0.10400
N 	N 	0.94500 0.08783 0.67860 -0.25300
N 	N 	0.47800 0.62314 0.30272 -0.26300
N 	N 	0.29620 0.72640 0.25360 -0.11800
N 	N 	0.77720 0.81000 0.20890 -0.10400
N 	N 	0.55500 0.91217 0.17860 -0.25200
N 	N 	0.97800 0.87686 0.69728 -0.26300
N 	N 	0.79620 0.77360 0.74640 -0.11800
N 	N 	0.27720 0.69000 0.79110 -0.10400
N 	N 	0.05500 0.58783 0.82140 -0.25300
N 	N 	0.52200 0.12314 0.19728 -0.26300
N 	N 	0.70380 0.22640 0.24640 -0.11800
N 	N 	0.22280 0.31000 0.29110 -0.10400
N 	N 	0.44500 0.41217 0.32140 -0.25300
O 	O 	0.83960 0.49521 0.23945 -0.47600
O 	O 	0.57360 0.49372 0.17460 -0.34900
O 	O 	0.67730 0.51633 0.88971 -0.46500
O 	O 	0.59060 0.38205 0.86342 -0.37500
O 	O 	0.66040 0.50479 0.73945 -0.47600
O 	O 	0.92640 0.50628 0.67460 -0.34900
O 	O 	0.82270 0.48367 0.38971 -0.46400
O 	O 	0.90940 0.61795 0.36342 -0.37500
O 	O 	0.16040 0.99521 0.26055 -0.47400
O 	O 	0.42640 0.99372 0.32540 -0.34800
O 	O 	0.32270 0.01633 0.61029 -0.46300
O 	O 	0.40940 0.88205 0.63658 -0.37400
O 	O 	0.33960 0.00479 0.76055 -0.47300
O 	O 	0.07360 0.00628 0.82540 -0.34600
O 	O 	0.17730 0.98367 0.11029 -0.45900
O 	O 	0.09060 0.11795 0.13658 -0.37300
