data_crystal

_cell_length_a 11.72700
_cell_length_b 13.45100
_cell_length_c 15.56500
_cell_angle_alpha 113.39000
_cell_angle_beta  98.71000
_cell_angle_gamma 102.97000

_symmetry_space_group_name_	'P 1'
_symmetry_space_group_name_H-M	'P 1'

loop_
_symmetry_equiv_pos_as_xyz
  x,y,z

loop_
_atom_site_label
_atom_site_type_symbol
_atom_site_fract_x
_atom_site_fract_y
_atom_site_fract_z
_atom_site_charge
Zn	Zn	0.34864 0.34572 0.65291 1.23400
Zn	Zn	0.48042 0.80835 0.30940 1.21700
Zn	Zn	0.07657 0.42030 0.68807 1.21000
Zn	Zn	0.65136 0.65428 0.34709 1.23400
Zn	Zn	0.51958 0.19165 0.69060 1.21800
Zn	Zn	0.92343 0.57970 0.31193 1.21200
H 	H 	0.10320 0.00570 0.37210 0.04700
H 	H 	0.90020 0.84890 0.29870 0.05700
H 	H 	0.55120 0.64930 0.95330 0.06100
H 	H 	0.66260 0.72990 0.13100 0.04600
H 	H 	0.18910 0.72660 0.63750 0.05400
H 	H 	0.26740 0.81320 0.53270 0.08500
H 	H 	0.01060 0.45020 0.41200 -0.03600
H 	H 	0.16230 0.37450 0.42920 0.14500
H 	H 	0.12710 0.53220 0.21940 -0.04000
H 	H 	0.28500 0.46120 0.23510 0.15000
H 	H 	0.34660 0.34430 0.40310 0.21300
H 	H 	0.42650 0.43200 0.37630 0.22700
H 	H 	0.34960 0.29530 0.21190 -0.07400
H 	H 	0.43570 0.26350 0.27660 -0.06100
H 	H 	0.19870 0.17490 0.26650 0.19000
H 	H 	0.22220 0.13090 0.16340 0.18700
H 	H 	0.32590 0.99380 0.11840 0.14900
H 	H 	0.32030 0.13270 0.39260 0.15400
H 	H 	0.40100 0.00190 0.41690 -0.03000
H 	H 	0.40310 0.86430 0.14550 -0.03900
H 	H 	0.89680 0.99430 0.62790 0.04500
H 	H 	0.09980 0.15110 0.70130 0.05700
H 	H 	0.44880 0.35070 0.04670 0.05000
H 	H 	0.33740 0.27010 0.86900 0.05900
H 	H 	0.81090 0.27340 0.36250 0.05600
H 	H 	0.73260 0.18680 0.46730 0.08500
H 	H 	0.98940 0.54980 0.58800 -0.03500
H 	H 	0.83770 0.62550 0.57080 0.14500
H 	H 	0.87290 0.46780 0.78060 -0.04200
H 	H 	0.71500 0.53880 0.76490 0.14900
H 	H 	0.65340 0.65570 0.59690 0.21200
H 	H 	0.57350 0.56800 0.62370 0.22700
H 	H 	0.65040 0.70470 0.78810 -0.07600
H 	H 	0.56430 0.73650 0.72340 -0.06100
H 	H 	0.80130 0.82510 0.73350 0.18700
H 	H 	0.77780 0.86910 0.83660 0.18200
H 	H 	0.67410 0.00620 0.88160 0.14300
H 	H 	0.67970 0.86730 0.60740 0.15200
H 	H 	0.59900 0.99810 0.58310 -0.02700
H 	H 	0.59690 0.13570 0.85450 -0.04400
C 	C 	0.09370 0.22080 0.51840 0.36500
C 	C 	0.01350 0.10380 0.44990 0.00200
C 	C 	0.03040 0.01180 0.38690 -0.02400
C 	C 	0.91630 0.92330 0.34570 -0.05900
C 	C 	0.83750 0.96890 0.38810 0.03900
C 	C 	0.70820 0.92200 0.38280 0.28600
C 	C 	0.55960 0.41990 0.83550 0.35500
C 	C 	0.61110 0.51270 0.93560 0.00600
C 	C 	0.59480 0.61500 0.98150 -0.05400
C 	C 	0.65700 0.66010 0.08120 -0.01700
C 	C 	0.70680 0.58120 0.08970 0.00900
C 	C 	0.78220 0.57860 0.17180 0.31800
C 	C 	0.28420 0.54700 0.63990 0.35400
C 	C 	0.30440 0.63200 0.60220 0.00900
C 	C 	0.24670 0.70900 0.60400 -0.02500
C 	C 	0.29070 0.75770 0.54540 -0.05500
C 	C 	0.37410 0.70750 0.51110 0.02500
C 	C 	0.44600 0.72290 0.44520 0.35000
C 	C 	0.06700 0.45360 0.37640 0.17400
C 	C 	0.15850 0.40790 0.38730 -0.30800
C 	C 	0.24580 0.41120 0.33600 0.32300
C 	C 	0.13520 0.50240 0.26380 0.16700
C 	C 	0.23060 0.45860 0.27250 -0.30500
C 	C 	0.35170 0.36920 0.35290 -0.55300
C 	C 	0.35670 0.27390 0.26460 0.35400
C 	C 	0.26050 0.16190 0.23230 -0.53300
C 	C 	0.30990 0.07610 0.25040 0.33500
C 	C 	0.33860 0.99670 0.17990 -0.33100
C 	C 	0.33600 0.07790 0.34070 -0.31800
C 	C 	0.38540 0.99890 0.35540 0.18200
C 	C 	0.38660 0.91930 0.19690 0.18400
C 	C 	0.90630 0.77920 0.48160 0.36500
C 	C 	0.98650 0.89620 0.55010 0.00100
C 	C 	0.96960 0.98820 0.61310 -0.02000
C 	C 	0.08370 0.07670 0.65430 -0.06500
C 	C 	0.16250 0.03110 0.61190 0.03900
C 	C 	0.29180 0.07800 0.61720 0.28500
C 	C 	0.44040 0.58010 0.16450 0.35900
C 	C 	0.38890 0.48730 0.06440 0.00400
C 	C 	0.40520 0.38500 0.01850 -0.00200
C 	C 	0.34300 0.33990 0.91880 -0.06700
C 	C 	0.29320 0.41880 0.91030 0.01100
C 	C 	0.21780 0.42140 0.82820 0.31500
C 	C 	0.71580 0.45300 0.36010 0.35400
C 	C 	0.69560 0.36800 0.39780 0.01000
C 	C 	0.75330 0.29100 0.39600 -0.02500
C 	C 	0.70930 0.24230 0.45460 -0.05400
C 	C 	0.62590 0.29250 0.48890 0.02500
C 	C 	0.55400 0.27710 0.55480 0.35000
C 	C 	0.93300 0.54640 0.62360 0.17400
C 	C 	0.84150 0.59210 0.61270 -0.30800
C 	C 	0.75420 0.58880 0.66400 0.32200
C 	C 	0.86480 0.49760 0.73620 0.16600
C 	C 	0.76940 0.54140 0.72750 -0.30600
C 	C 	0.64830 0.63080 0.64710 -0.55300
C 	C 	0.64330 0.72610 0.73540 0.35200
C 	C 	0.73950 0.83810 0.76770 -0.52900
C 	C 	0.69010 0.92390 0.74960 0.33100
C 	C 	0.66140 0.00330 0.82010 -0.33000
C 	C 	0.66400 0.92210 0.65930 -0.31400
C 	C 	0.61460 0.00110 0.64460 0.17700
C 	C 	0.61340 0.08070 0.80310 0.18100
N 	N 	0.05400 0.50370 0.31640 -0.29400
N 	N 	0.41070 0.91990 0.28440 -0.30500
N 	N 	0.94600 0.49630 0.68360 -0.29400
N 	N 	0.58930 0.08010 0.71560 -0.30500
O 	O 	0.20690 0.23390 0.53540 -0.44500
O 	O 	0.04570 0.29590 0.55340 -0.46800
O 	O 	0.89340 0.08190 0.45240 -0.16600
O 	O 	0.65330 0.81830 0.31790 -0.51400
O 	O 	0.65780 0.98200 0.43510 -0.32200
O 	O 	0.59300 0.33240 0.81660 -0.45000
O 	O 	0.48660 0.43680 0.77900 -0.44900
O 	O 	0.68280 0.49000 -0.00000 -0.13400
O 	O 	0.77980 0.64180 0.25610 -0.50200
O 	O 	0.85050 0.51740 0.15830 -0.38400
O 	O 	0.19840 0.54730 0.68060 -0.44700
O 	O 	0.35100 0.48410 0.63020 -0.43200
O 	O 	0.38580 0.63070 0.54660 -0.16400
O 	O 	0.53080 0.68230 0.43350 -0.44200
O 	O 	0.40960 0.78030 0.40440 -0.47000
O 	O 	0.79310 0.76610 0.46460 -0.44500
O 	O 	0.95430 0.70410 0.44660 -0.46700
O 	O 	0.10660 0.91810 0.54760 -0.16600
O 	O 	0.34670 0.18170 0.68210 -0.51500
O 	O 	0.34220 0.01800 0.56490 -0.32200
O 	O 	0.40700 0.66760 0.18340 -0.44700
O 	O 	0.51340 0.56320 0.22100 -0.45000
O 	O 	0.31720 0.51000 -0.00000 -0.13400
O 	O 	0.22020 0.35820 0.74390 -0.50100
O 	O 	0.14950 0.48260 0.84170 -0.39000
O 	O 	0.80160 0.45270 0.31940 -0.44500
O 	O 	0.64900 0.51590 0.36980 -0.43200
O 	O 	0.61420 0.36930 0.45340 -0.16400
O 	O 	0.46920 0.31770 0.56650 -0.44200
O 	O 	0.59040 0.21970 0.59560 -0.47000
