data_crystal

_cell_length_a 8.45900
_cell_length_b 9.62200
_cell_length_c 24.38900
_cell_angle_alpha 90.00000
_cell_angle_beta  90.00000
_cell_angle_gamma 90.00000

_symmetry_space_group_name_	'P 1'
_symmetry_space_group_name_H-M	'P 1'

loop_
_symmetry_equiv_pos_as_xyz
  x,y,z

loop_
_atom_site_label
_atom_site_type_symbol
_atom_site_fract_x
_atom_site_fract_y
_atom_site_fract_z
_atom_site_charge
Zn	Zn	0.77341 0.59552 0.53507 1.21900
Zn	Zn	0.77341 0.90448 0.96493 1.21800
Zn	Zn	0.72659 0.40448 0.03507 1.21900
Zn	Zn	0.72659 0.09552 0.46493 1.21900
Zn	Zn	0.22659 0.40448 0.46493 1.21900
Zn	Zn	0.22659 0.09552 0.03507 1.21800
Zn	Zn	0.27341 0.59552 0.96493 1.21800
Zn	Zn	0.27341 0.90448 0.53507 1.21800
P 	P 	0.86554 0.39795 0.43763 0.44900
P 	P 	0.86554 0.10205 0.06237 0.44500
P 	P 	0.63446 0.60205 0.93763 0.45000
P 	P 	0.63446 0.89795 0.56237 0.45000
P 	P 	0.13446 0.60205 0.56237 0.44900
P 	P 	0.13446 0.89795 0.93763 0.44500
P 	P 	0.36554 0.39795 0.06237 0.45000
P 	P 	0.36554 0.10205 0.43763 0.45000
H 	H 	0.77930 0.38670 0.39370 -0.04800
H 	H 	0.41790 0.20880 0.60250 0.09800
H 	H 	0.58790 0.31550 0.54160 -0.04000
H 	H 	0.62240 0.64390 0.63780 -0.02900
H 	H 	0.45300 0.54500 0.70070 0.09700
H 	H 	0.22920 0.36980 0.71370 0.11600
H 	H 	0.25000 0.22130 0.68480 0.11900
H 	H 	0.47400 0.17320 0.73760 -0.00500
H 	H 	0.77930 0.11330 0.10630 -0.04800
H 	H 	0.41790 0.29120 0.89750 0.09600
H 	H 	0.58790 0.18450 0.95840 -0.03800
H 	H 	0.62240 0.85610 0.86220 -0.02400
H 	H 	0.45300 0.95500 0.79930 0.08700
H 	H 	0.22920 0.13020 0.78630 0.11500
H 	H 	0.25000 0.27870 0.81520 0.11700
H 	H 	0.47400 0.32680 0.76240 -0.00600
H 	H 	0.72070 0.61330 0.89370 -0.04700
H 	H 	0.08210 0.79120 0.10250 0.09700
H 	H 	0.91210 0.68450 0.04160 -0.03800
H 	H 	0.87760 0.35610 0.13780 -0.02900
H 	H 	0.04700 0.45500 0.20070 0.09600
H 	H 	0.27080 0.63020 0.21370 0.11600
H 	H 	0.25000 0.77870 0.18480 0.11900
H 	H 	0.02600 0.82680 0.23760 -0.00500
H 	H 	0.72070 0.88670 0.60630 -0.04800
H 	H 	0.08210 0.70880 0.39750 0.09600
H 	H 	0.91210 0.81550 0.45840 -0.03800
H 	H 	0.87760 0.14390 0.36220 -0.02500
H 	H 	0.04700 0.04500 0.29930 0.09100
H 	H 	0.27080 0.86980 0.28630 0.11600
H 	H 	0.25000 0.72130 0.31520 0.11800
H 	H 	0.02600 0.67320 0.26240 -0.00500
H 	H 	0.22070 0.61330 0.60630 -0.04800
H 	H 	0.58210 0.79120 0.39750 0.09800
H 	H 	0.41210 0.68450 0.45840 -0.04000
H 	H 	0.37760 0.35610 0.36220 -0.02900
H 	H 	0.54700 0.45500 0.29930 0.09700
H 	H 	0.77080 0.63020 0.28630 0.11600
H 	H 	0.75000 0.77870 0.31520 0.11900
H 	H 	0.52600 0.82680 0.26240 -0.00500
H 	H 	0.22070 0.88670 0.89370 -0.04800
H 	H 	0.58210 0.70880 0.10250 0.09600
H 	H 	0.41210 0.81550 0.04160 -0.03800
H 	H 	0.37760 0.14390 0.13780 -0.02400
H 	H 	0.54700 0.04500 0.20070 0.08700
H 	H 	0.77080 0.86980 0.21370 0.11500
H 	H 	0.75000 0.72130 0.18480 0.11700
H 	H 	0.52600 0.67320 0.23760 -0.00600
H 	H 	0.27930 0.38670 0.10630 -0.04700
H 	H 	0.91790 0.20880 0.89750 0.09700
H 	H 	0.08790 0.31550 0.95840 -0.03800
H 	H 	0.12240 0.64390 0.86220 -0.02900
H 	H 	0.95300 0.54500 0.79930 0.09600
H 	H 	0.72920 0.36980 0.78630 0.11600
H 	H 	0.75000 0.22130 0.81520 0.11900
H 	H 	0.97400 0.17320 0.76240 -0.00500
H 	H 	0.27930 0.11330 0.39370 -0.04800
H 	H 	0.91790 0.29120 0.60250 0.09600
H 	H 	0.08790 0.18450 0.54160 -0.03800
H 	H 	0.12240 0.85610 0.63780 -0.02500
H 	H 	0.95300 0.95500 0.70070 0.09100
H 	H 	0.72920 0.13020 0.71370 0.11600
H 	H 	0.75000 0.27870 0.68480 0.11800
H 	H 	0.97400 0.32680 0.73760 -0.00500
C 	C 	0.45810 0.29870 0.61058 -0.21400
C 	C 	0.55990 0.36260 0.57445 0.11200
C 	C 	0.58010 0.55430 0.63053 0.10400
C 	C 	0.47880 0.49580 0.66811 -0.21200
C 	C 	0.41370 0.36490 0.65878 0.19100
C 	C 	0.30780 0.30050 0.70114 -0.30700
C 	C 	0.45810 0.20130 0.88942 -0.20700
C 	C 	0.55990 0.13740 0.92555 0.10800
C 	C 	0.58010 0.94570 0.86947 0.08600
C 	C 	0.47880 0.00420 0.83189 -0.18900
C 	C 	0.41370 0.13510 0.84122 0.18100
C 	C 	0.30780 0.19950 0.79886 -0.30100
C 	C 	0.04190 0.70130 0.11058 -0.21000
C 	C 	0.94010 0.63740 0.07445 0.10900
C 	C 	0.91990 0.44570 0.13053 0.10000
C 	C 	0.02120 0.50420 0.16811 -0.20800
C 	C 	0.08630 0.63510 0.15878 0.18900
C 	C 	0.19220 0.69950 0.20114 -0.30500
C 	C 	0.04190 0.79870 0.38942 -0.20800
C 	C 	0.94010 0.86260 0.42555 0.10800
C 	C 	0.91990 0.05430 0.36947 0.08900
C 	C 	0.02120 0.99580 0.33189 -0.19500
C 	C 	0.08630 0.86490 0.34122 0.18400
C 	C 	0.19220 0.80050 0.29886 -0.30300
C 	C 	0.54190 0.70130 0.38942 -0.21400
C 	C 	0.44010 0.63740 0.42555 0.11200
C 	C 	0.41990 0.44570 0.36947 0.10400
C 	C 	0.52120 0.50420 0.33189 -0.21200
C 	C 	0.58630 0.63510 0.34122 0.19100
C 	C 	0.69220 0.69950 0.29886 -0.30700
C 	C 	0.54190 0.79870 0.11058 -0.20700
C 	C 	0.44010 0.86260 0.07445 0.10800
C 	C 	0.41990 0.05430 0.13053 0.08600
C 	C 	0.52120 0.99580 0.16811 -0.18900
C 	C 	0.58630 0.86490 0.15878 0.18100
C 	C 	0.69220 0.80050 0.20114 -0.30100
C 	C 	0.95810 0.29870 0.88942 -0.21000
C 	C 	0.05990 0.36260 0.92555 0.10900
C 	C 	0.08010 0.55430 0.86947 0.10000
C 	C 	0.97880 0.49580 0.83189 -0.20800
C 	C 	0.91370 0.36490 0.84122 0.18900
C 	C 	0.80780 0.30050 0.79886 -0.30500
C 	C 	0.95810 0.20130 0.61058 -0.20800
C 	C 	0.05990 0.13740 0.57445 0.10800
C 	C 	0.08010 0.94570 0.63053 0.08900
C 	C 	0.97880 0.00420 0.66811 -0.19500
C 	C 	0.91370 0.13510 0.65878 0.18400
C 	C 	0.80780 0.19950 0.70114 -0.30300
C 	C 	0.40480 0.25000 0.75000 0.09700
C 	C 	0.09520 0.75000 0.25000 0.09700
C 	C 	0.59520 0.75000 0.25000 0.09700
C 	C 	0.90480 0.25000 0.75000 0.09700
N 	N 	0.62130 0.48920 0.58391 -0.28800
N 	N 	0.62130 0.01080 0.91609 -0.28200
N 	N 	0.87870 0.51080 0.08391 -0.28700
N 	N 	0.87870 0.98920 0.41609 -0.28300
N 	N 	0.37870 0.51080 0.41609 -0.28800
N 	N 	0.37870 0.98920 0.08391 -0.28200
N 	N 	0.12130 0.48920 0.91609 -0.28700
N 	N 	0.12130 0.01080 0.58391 -0.28300
O 	O 	0.82390 0.53674 0.46277 -0.47300
O 	O 	0.82010 0.27745 0.47405 -0.49000
O 	O 	0.03790 0.39137 0.41836 -0.44900
O 	O 	0.82390 0.96326 0.03723 -0.46900
O 	O 	0.82010 0.22255 0.02595 -0.49000
O 	O 	0.03790 0.10863 0.08164 -0.44900
O 	O 	0.67610 0.46326 0.96277 -0.47300
O 	O 	0.67990 0.72255 0.97405 -0.49000
O 	O 	0.46210 0.60863 0.91836 -0.45000
O 	O 	0.67610 0.03674 0.53723 -0.47300
O 	O 	0.67990 0.77745 0.52595 -0.48900
O 	O 	0.46210 0.89137 0.58164 -0.45000
O 	O 	0.17610 0.46326 0.53723 -0.47300
O 	O 	0.17990 0.72255 0.52595 -0.49000
O 	O 	0.96210 0.60863 0.58164 -0.44900
O 	O 	0.17610 0.03674 0.96277 -0.46900
O 	O 	0.17990 0.77745 0.97405 -0.49000
O 	O 	0.96210 0.89137 0.91836 -0.44900
O 	O 	0.32390 0.53674 0.03723 -0.47300
O 	O 	0.32010 0.27745 0.02595 -0.49000
O 	O 	0.53790 0.39137 0.08164 -0.45000
O 	O 	0.32390 0.96326 0.46277 -0.47300
O 	O 	0.32010 0.22255 0.47405 -0.48900
O 	O 	0.53790 0.10863 0.41836 -0.45000
