data_crystal

_cell_length_a 9.55330
_cell_length_b 9.99470
_cell_length_c 23.88660
_cell_angle_alpha 90.00000
_cell_angle_beta  90.00000
_cell_angle_gamma 90.00000

_symmetry_space_group_name_	'P 1'
_symmetry_space_group_name_H-M	'P 1'

loop_
_symmetry_equiv_pos_as_xyz
  x,y,z

loop_
_atom_site_label
_atom_site_type_symbol
_atom_site_fract_x
_atom_site_fract_y
_atom_site_fract_z
_atom_site_charge
Zn	Zn	0.82528 0.62551 0.48806 1.21800
Zn	Zn	0.32528 0.87449 0.51194 1.21800
Zn	Zn	0.17472 0.37449 0.98806 1.21800
Zn	Zn	0.67472 0.12551 0.01194 1.21700
Zn	Zn	0.17472 0.37449 0.51194 1.21800
Zn	Zn	0.67472 0.12551 0.48806 1.21800
Zn	Zn	0.82528 0.62551 0.01194 1.21900
Zn	Zn	0.32528 0.87449 0.98806 1.21800
P 	P 	0.11269 0.65418 0.56129 0.46200
P 	P 	0.61269 0.84582 0.43871 0.46200
P 	P 	0.88731 0.34582 0.06129 0.46200
P 	P 	0.38731 0.15418 0.93871 0.46200
P 	P 	0.88731 0.34582 0.43871 0.46200
P 	P 	0.38731 0.15418 0.56129 0.46200
P 	P 	0.11269 0.65418 0.93871 0.46200
P 	P 	0.61269 0.84582 0.06129 0.46200
H 	H 	0.06860 0.70280 0.60860 -0.05000
H 	H 	0.53180 0.62460 0.53960 -0.02500
H 	H 	0.41970 0.53170 0.61620 0.10400
H 	H 	0.77660 0.33400 0.65310 0.10000
H 	H 	0.87870 0.42940 0.57550 -0.03700
H 	H 	0.41950 0.38640 0.69660 0.11100
H 	H 	0.53560 0.27100 0.69820 0.11100
H 	H 	0.56860 0.79720 0.39140 -0.05000
H 	H 	0.03180 0.87540 0.46040 -0.02200
H 	H 	0.91970 0.96830 0.38380 0.09900
H 	H 	0.27660 0.16600 0.34690 0.09700
H 	H 	0.37870 0.07060 0.42450 -0.03500
H 	H 	0.91950 0.11360 0.30340 0.10700
H 	H 	0.03560 0.22900 0.30180 0.10700
H 	H 	0.93140 0.29720 0.10860 -0.05000
H 	H 	0.46820 0.37540 0.03960 -0.02500
H 	H 	0.58030 0.46830 0.11620 0.10400
H 	H 	0.22340 0.66600 0.15310 0.10000
H 	H 	0.12130 0.57060 0.07550 -0.03600
H 	H 	0.58050 0.61360 0.19660 0.11100
H 	H 	0.46440 0.72900 0.19820 0.11100
H 	H 	0.43140 0.20280 0.89140 -0.05000
H 	H 	0.96820 0.12460 0.96040 -0.02000
H 	H 	0.08030 0.03170 0.88380 0.09700
H 	H 	0.72340 0.83400 0.84690 0.09600
H 	H 	0.62130 0.92940 0.92450 -0.03400
H 	H 	0.08050 0.88640 0.80340 0.10500
H 	H 	0.96440 0.77100 0.80180 0.10600
H 	H 	0.93140 0.29720 0.39140 -0.05000
H 	H 	0.46820 0.37540 0.46040 -0.02500
H 	H 	0.58030 0.46830 0.38380 0.10400
H 	H 	0.22340 0.66600 0.34690 0.10000
H 	H 	0.12130 0.57060 0.42450 -0.03700
H 	H 	0.58050 0.61360 0.30340 0.11100
H 	H 	0.46440 0.72900 0.30180 0.11100
H 	H 	0.43140 0.20280 0.60860 -0.05000
H 	H 	0.96820 0.12460 0.53960 -0.02200
H 	H 	0.08030 0.03170 0.61620 0.09900
H 	H 	0.72340 0.83400 0.65310 0.09700
H 	H 	0.62130 0.92940 0.57550 -0.03500
H 	H 	0.08050 0.88640 0.69660 0.10700
H 	H 	0.96440 0.77100 0.69820 0.10700
H 	H 	0.06860 0.70280 0.89140 -0.05000
H 	H 	0.53180 0.62460 0.96040 -0.02500
H 	H 	0.41970 0.53170 0.88380 0.10400
H 	H 	0.77660 0.33400 0.84690 0.10000
H 	H 	0.87870 0.42940 0.92450 -0.03600
H 	H 	0.41950 0.38640 0.80340 0.11100
H 	H 	0.53560 0.27100 0.80180 0.11100
H 	H 	0.56860 0.79720 0.10860 -0.05000
H 	H 	0.03180 0.87540 0.03960 -0.02000
H 	H 	0.91970 0.96830 0.11620 0.09700
H 	H 	0.27660 0.16600 0.15310 0.09600
H 	H 	0.37870 0.07060 0.07550 -0.03400
H 	H 	0.91950 0.11360 0.19660 0.10500
H 	H 	0.03560 0.22900 0.19820 0.10600
H 	H 	0.68720 0.41720 0.75000 -0.00000
H 	H 	0.56680 0.52880 0.75000 0.00100
H 	H 	0.18720 0.08280 0.25000 0.00500
H 	H 	0.06680 0.97120 0.25000 0.00900
H 	H 	0.31280 0.58280 0.25000 -0.00000
H 	H 	0.43320 0.47120 0.25000 0.00100
H 	H 	0.81280 0.91720 0.75000 0.00500
H 	H 	0.93320 0.02880 0.75000 0.00900
C 	C 	0.58240 0.56570 0.56340 0.10800
C 	C 	0.51500 0.51060 0.60913 -0.22300
C 	C 	0.58630 0.42460 0.64484 0.19000
C 	C 	0.72420 0.39460 0.63067 -0.22000
C 	C 	0.78480 0.45210 0.58444 0.10700
C 	C 	0.52150 0.36910 0.69723 -0.29800
C 	C 	0.08240 0.93430 0.43660 0.10200
C 	C 	0.01500 0.98940 0.39087 -0.20900
C 	C 	0.08630 0.07540 0.35516 0.17800
C 	C 	0.22420 0.10540 0.36933 -0.21300
C 	C 	0.28480 0.04790 0.41556 0.10100
C 	C 	0.02150 0.13090 0.30277 -0.28400
C 	C 	0.41760 0.43430 0.06340 0.10800
C 	C 	0.48500 0.48940 0.10913 -0.22300
C 	C 	0.41370 0.57540 0.14484 0.19000
C 	C 	0.27580 0.60540 0.13067 -0.22000
C 	C 	0.21520 0.54790 0.08444 0.10700
C 	C 	0.47850 0.63090 0.19723 -0.29800
C 	C 	0.91760 0.06570 0.93660 0.09900
C 	C 	0.98500 0.01060 0.89087 -0.20200
C 	C 	0.91370 0.92460 0.85516 0.17300
C 	C 	0.77580 0.89460 0.86933 -0.20900
C 	C 	0.71520 0.95210 0.91556 0.09700
C 	C 	0.97850 0.86910 0.80277 -0.28100
C 	C 	0.41760 0.43430 0.43660 0.10800
C 	C 	0.48500 0.48940 0.39087 -0.22300
C 	C 	0.41370 0.57540 0.35516 0.19000
C 	C 	0.27580 0.60540 0.36933 -0.22000
C 	C 	0.21520 0.54790 0.41556 0.10700
C 	C 	0.47850 0.63090 0.30277 -0.29800
C 	C 	0.91760 0.06570 0.56340 0.10200
C 	C 	0.98500 0.01060 0.60913 -0.20900
C 	C 	0.91370 0.92460 0.64484 0.17800
C 	C 	0.77580 0.89460 0.63067 -0.21300
C 	C 	0.71520 0.95210 0.58444 0.10100
C 	C 	0.97850 0.86910 0.69723 -0.28400
C 	C 	0.58240 0.56570 0.93660 0.10800
C 	C 	0.51500 0.51060 0.89087 -0.22300
C 	C 	0.58630 0.42460 0.85516 0.19000
C 	C 	0.72420 0.39460 0.86933 -0.22000
C 	C 	0.78480 0.45210 0.91556 0.10700
C 	C 	0.52150 0.36910 0.80277 -0.29800
C 	C 	0.08240 0.93430 0.06340 0.09900
C 	C 	0.01500 0.98940 0.10913 -0.20200
C 	C 	0.08630 0.07540 0.14484 0.17300
C 	C 	0.22420 0.10540 0.13067 -0.20900
C 	C 	0.28480 0.04790 0.08444 0.09700
C 	C 	0.02150 0.13090 0.19723 -0.28100
C 	C 	0.58460 0.43120 0.75000 0.09000
C 	C 	0.08460 0.06880 0.25000 0.07100
C 	C 	0.41540 0.56880 0.25000 0.09000
C 	C 	0.91540 0.93120 0.75000 0.07100
N 	N 	0.71710 0.53880 0.55138 -0.28900
N 	N 	0.21710 0.96120 0.44862 -0.28600
N 	N 	0.28290 0.46120 0.05138 -0.28800
N 	N 	0.78290 0.03880 0.94862 -0.28300
N 	N 	0.28290 0.46120 0.44862 -0.28900
N 	N 	0.78290 0.03880 0.55138 -0.28600
N 	N 	0.71710 0.53880 0.94862 -0.28800
N 	N 	0.21710 0.96120 0.05138 -0.28300
O 	O 	0.00231 0.68751 0.51839 -0.48500
O 	O 	0.13170 0.50450 0.57040 -0.45800
O 	O 	0.24980 0.72219 0.54910 -0.47300
O 	O 	0.50231 0.81249 0.48161 -0.48500
O 	O 	0.63170 0.99550 0.42960 -0.45700
O 	O 	0.74980 0.77781 0.45090 -0.47300
O 	O 	0.99769 0.31249 0.01839 -0.48600
O 	O 	0.86830 0.49550 0.07040 -0.45800
O 	O 	0.75020 0.27781 0.04910 -0.47400
O 	O 	0.49769 0.18751 0.98161 -0.48400
O 	O 	0.36830 0.00450 0.92960 -0.45600
O 	O 	0.25020 0.22219 0.95090 -0.47300
O 	O 	0.99769 0.31249 0.48161 -0.48500
O 	O 	0.86830 0.49550 0.42960 -0.45800
O 	O 	0.75020 0.27781 0.45090 -0.47300
O 	O 	0.49769 0.18751 0.51839 -0.48500
O 	O 	0.36830 0.00450 0.57040 -0.45700
O 	O 	0.25020 0.22219 0.54910 -0.47300
O 	O 	0.00231 0.68751 0.98161 -0.48600
O 	O 	0.13170 0.50450 0.92960 -0.45800
O 	O 	0.24980 0.72219 0.95090 -0.47400
O 	O 	0.50231 0.81249 0.01839 -0.48400
O 	O 	0.63170 0.99550 0.07040 -0.45600
O 	O 	0.74980 0.77781 0.04910 -0.47300
