data_crystal

_cell_length_a 14.79170
_cell_length_b 14.79170
_cell_length_c 16.81710
_cell_angle_alpha 102.25700
_cell_angle_beta  102.25700
_cell_angle_gamma 115.74100

_symmetry_space_group_name_	'P 1'
_symmetry_space_group_name_H-M	'P 1'

loop_
_symmetry_equiv_pos_as_xyz
  x,y,z

loop_
_atom_site_label
_atom_site_type_symbol
_atom_site_fract_x
_atom_site_fract_y
_atom_site_fract_z
_atom_site_charge
Zn	Zn	0.54128 0.93096 0.93109 1.22000
Zn	Zn	0.06904 0.45872 0.56891 1.22000
Zn	Zn	0.45872 0.06904 0.06891 1.22000
Zn	Zn	0.93096 0.54128 0.43109 1.22000
Zn	Zn	0.32908 0.67092 0.75000 1.23600
Zn	Zn	0.67092 0.32908 0.25000 1.23600
H 	H 	0.49400 0.54460 0.83510 -0.00700
H 	H 	0.58950 0.45930 0.84830 0.11600
H 	H 	0.86200 0.73780 0.91710 0.11100
H 	H 	0.76230 0.82250 0.90110 -0.00400
H 	H 	0.12550 0.60810 0.91120 0.00500
H 	H 	0.99040 0.57640 0.96800 0.11200
H 	H 	0.80380 0.55600 0.74580 0.11300
H 	H 	0.93730 0.58250 0.68890 -0.01400
H 	H 	0.62330 0.33470 0.03370 -0.00400
H 	H 	0.70520 0.49420 0.00980 0.11800
H 	H 	0.79950 0.36090 0.83540 0.11700
H 	H 	0.72240 0.20360 0.86380 -0.00600
H 	H 	0.45540 0.50600 0.66490 -0.00700
H 	H 	0.54070 0.41050 0.65170 0.11600
H 	H 	0.26220 0.13800 0.58290 0.11100
H 	H 	0.17750 0.23770 0.59890 -0.00400
H 	H 	0.39190 0.87450 0.58880 0.00400
H 	H 	0.42360 0.00960 0.53200 0.11200
H 	H 	0.44400 0.19620 0.75420 0.11300
H 	H 	0.41750 0.06270 0.81110 -0.01400
H 	H 	0.66530 0.37670 0.46630 -0.00300
H 	H 	0.50580 0.29480 0.49020 0.11800
H 	H 	0.63910 0.20050 0.66460 0.11700
H 	H 	0.79640 0.27760 0.63620 -0.00600
H 	H 	0.50600 0.45540 0.16490 -0.00700
H 	H 	0.41050 0.54070 0.15170 0.11600
H 	H 	0.13800 0.26220 0.08290 0.11100
H 	H 	0.23770 0.17750 0.09890 -0.00400
H 	H 	0.87450 0.39190 0.08880 0.00500
H 	H 	0.00960 0.42360 0.03200 0.11200
H 	H 	0.19620 0.44400 0.25420 0.11300
H 	H 	0.06270 0.41750 0.31110 -0.01400
H 	H 	0.37670 0.66530 0.96630 -0.00400
H 	H 	0.29480 0.50580 0.99020 0.11800
H 	H 	0.20050 0.63910 0.16460 0.11700
H 	H 	0.27760 0.79640 0.13620 -0.00600
H 	H 	0.54460 0.49400 0.33510 -0.00700
H 	H 	0.45930 0.58950 0.34830 0.11600
H 	H 	0.73780 0.86200 0.41710 0.11100
H 	H 	0.82250 0.76230 0.40110 -0.00400
H 	H 	0.60810 0.12550 0.41120 0.00400
H 	H 	0.57640 0.99040 0.46800 0.11200
H 	H 	0.55600 0.80380 0.24580 0.11300
H 	H 	0.58250 0.93730 0.18890 -0.01400
H 	H 	0.33470 0.62330 0.53370 -0.00300
H 	H 	0.49420 0.70520 0.50980 0.11800
H 	H 	0.36090 0.79950 0.33540 0.11700
H 	H 	0.20360 0.72240 0.36380 -0.00600
C 	C 	0.55271 0.74609 0.86120 0.42000
C 	C 	0.61815 0.69285 0.86810 -0.20300
C 	C 	0.56808 0.58372 0.85190 0.14200
C 	C 	0.62511 0.53269 0.85990 -0.23500
C 	C 	0.73624 0.58876 0.88530 0.18800
C 	C 	0.78791 0.69869 0.90070 -0.22100
C 	C 	0.72788 0.74952 0.89140 0.12900
C 	C 	0.13059 0.60981 0.75460 0.40600
C 	C 	0.04522 0.59658 0.79380 -0.19400
C 	C 	0.06005 0.59595 0.87740 0.12800
C 	C 	0.97960 0.57780 0.91190 -0.22300
C 	C 	0.88254 0.56166 0.86240 0.18600
C 	C 	0.86803 0.56497 0.77890 -0.22800
C 	C 	0.94813 0.58147 0.74520 0.13600
C 	C 	0.60610 0.14830 0.96350 0.47800
C 	C 	0.66060 0.25160 0.94900 -0.22000
C 	C 	0.65778 0.33942 0.99330 0.15100
C 	C 	0.70580 0.43480 0.97830 -0.23600
C 	C 	0.75493 0.44187 0.91620 0.19600
C 	C 	0.76294 0.35546 0.87450 -0.23700
C 	C 	0.71637 0.26123 0.89130 0.14600
C 	C 	0.25391 0.44729 0.63880 0.42000
C 	C 	0.30715 0.38185 0.63190 -0.20300
C 	C 	0.41628 0.43192 0.64810 0.14200
C 	C 	0.46731 0.37489 0.64010 -0.23500
C 	C 	0.41124 0.26376 0.61470 0.18800
C 	C 	0.30131 0.21209 0.59930 -0.22100
C 	C 	0.25048 0.27212 0.60860 0.12900
C 	C 	0.39019 0.86941 0.74540 0.40600
C 	C 	0.40342 0.95478 0.70620 -0.19500
C 	C 	0.40405 0.93995 0.62260 0.12900
C 	C 	0.42220 0.02040 0.58810 -0.22400
C 	C 	0.43834 0.11746 0.63760 0.18700
C 	C 	0.43503 0.13197 0.72110 -0.22800
C 	C 	0.41853 0.05187 0.75480 0.13600
C 	C 	0.85170 0.39390 0.53650 0.47700
C 	C 	0.74840 0.33940 0.55100 -0.21900
C 	C 	0.66058 0.34222 0.50670 0.15000
C 	C 	0.56520 0.29420 0.52170 -0.23500
C 	C 	0.55813 0.24507 0.58380 0.19600
C 	C 	0.64454 0.23706 0.62550 -0.23700
C 	C 	0.73877 0.28363 0.60870 0.14500
C 	C 	0.44729 0.25391 0.13880 0.42000
C 	C 	0.38185 0.30715 0.13190 -0.20300
C 	C 	0.43192 0.41628 0.14810 0.14200
C 	C 	0.37489 0.46731 0.14010 -0.23500
C 	C 	0.26376 0.41124 0.11470 0.18800
C 	C 	0.21209 0.30131 0.09930 -0.22100
C 	C 	0.27212 0.25048 0.10860 0.12900
C 	C 	0.86941 0.39019 0.24540 0.40600
C 	C 	0.95478 0.40342 0.20620 -0.19400
C 	C 	0.93995 0.40405 0.12260 0.12800
C 	C 	0.02040 0.42220 0.08810 -0.22300
C 	C 	0.11746 0.43834 0.13760 0.18600
C 	C 	0.13197 0.43503 0.22110 -0.22800
C 	C 	0.05187 0.41853 0.25480 0.13600
C 	C 	0.39390 0.85170 0.03650 0.47800
C 	C 	0.33940 0.74840 0.05100 -0.22000
C 	C 	0.34222 0.66058 0.00670 0.15100
C 	C 	0.29420 0.56520 0.02170 -0.23600
C 	C 	0.24507 0.55813 0.08380 0.19600
C 	C 	0.23706 0.64454 0.12550 -0.23700
C 	C 	0.28363 0.73877 0.10870 0.14600
C 	C 	0.74609 0.55271 0.36120 0.42000
C 	C 	0.69285 0.61815 0.36810 -0.20300
C 	C 	0.58372 0.56808 0.35190 0.14200
C 	C 	0.53269 0.62511 0.35990 -0.23500
C 	C 	0.58876 0.73624 0.38530 0.18800
C 	C 	0.69869 0.78791 0.40070 -0.22100
C 	C 	0.74952 0.72788 0.39140 0.12900
C 	C 	0.60981 0.13059 0.25460 0.40600
C 	C 	0.59658 0.04522 0.29380 -0.19500
C 	C 	0.59595 0.06005 0.37740 0.12900
C 	C 	0.57780 0.97960 0.41190 -0.22400
C 	C 	0.56166 0.88254 0.36240 0.18700
C 	C 	0.56497 0.86803 0.27890 -0.22800
C 	C 	0.58147 0.94813 0.24520 0.13600
C 	C 	0.14830 0.60610 0.46350 0.47700
C 	C 	0.25160 0.66060 0.44900 -0.21900
C 	C 	0.33942 0.65778 0.49330 0.15000
C 	C 	0.43480 0.70580 0.47830 -0.23500
C 	C 	0.44187 0.75493 0.41620 0.19600
C 	C 	0.35546 0.76294 0.37450 -0.23700
C 	C 	0.26123 0.71637 0.39130 0.14500
N 	N 	0.79714 0.53746 0.89640 -0.20000
N 	N 	0.46254 0.20286 0.60360 -0.20000
N 	N 	0.20286 0.46254 0.10360 -0.20000
N 	N 	0.53746 0.79714 0.39640 -0.20000
O 	O 	0.45290 0.68750 0.83740 -0.48700
O 	O 	0.60056 0.84664 0.88190 -0.49000
O 	O 	0.22097 0.63843 0.80530 -0.47500
O 	O 	0.11026 0.59514 0.67530 -0.48500
O 	O 	0.54813 0.14087 0.00840 -0.55500
O 	O 	0.61680 0.07320 0.92580 -0.51200
O 	O 	0.31250 0.54710 0.66260 -0.48700
O 	O 	0.15336 0.39944 0.61810 -0.49000
O 	O 	0.36157 0.77903 0.69470 -0.47500
O 	O 	0.40486 0.88974 0.82470 -0.48500
O 	O 	0.85913 0.45187 0.49160 -0.55400
O 	O 	0.92680 0.38320 0.57420 -0.51200
O 	O 	0.54710 0.31250 0.16260 -0.48700
O 	O 	0.39944 0.15336 0.11810 -0.49000
O 	O 	0.77903 0.36157 0.19470 -0.47500
O 	O 	0.88974 0.40486 0.32470 -0.48500
O 	O 	0.45187 0.85913 0.99160 -0.55500
O 	O 	0.38320 0.92680 0.07420 -0.51200
O 	O 	0.68750 0.45290 0.33740 -0.48700
O 	O 	0.84664 0.60056 0.38190 -0.49000
O 	O 	0.63843 0.22097 0.30530 -0.47500
O 	O 	0.59514 0.11026 0.17530 -0.48500
O 	O 	0.14087 0.54813 0.50840 -0.55400
O 	O 	0.07320 0.61680 0.42580 -0.51200
