data_crystal

_cell_length_a 15.74500
_cell_length_b 16.90700
_cell_length_c 18.16700
_cell_angle_alpha 90.00000
_cell_angle_beta  90.00000
_cell_angle_gamma 90.00000

_symmetry_space_group_name_	'P 1'
_symmetry_space_group_name_H-M	'P 1'

loop_
_symmetry_equiv_pos_as_xyz
  x,y,z

loop_
_atom_site_label
_atom_site_type_symbol
_atom_site_fract_x
_atom_site_fract_y
_atom_site_fract_z
_atom_site_charge
Zn	Zn	0.43410 0.82310 0.64440 1.22900
Zn	Zn	0.47930 0.64210 0.58920 1.18600
Zn	Zn	0.06590 0.17690 0.14440 1.22700
Zn	Zn	0.02070 0.35790 0.08920 1.18300
Zn	Zn	0.56590 0.32310 0.85560 1.22800
Zn	Zn	0.52070 0.14210 0.91080 1.18500
Zn	Zn	0.93410 0.67690 0.35560 1.22800
Zn	Zn	0.97930 0.85790 0.41080 1.18400
Zn	Zn	0.56590 0.17690 0.35560 1.22800
Zn	Zn	0.52070 0.35790 0.41080 1.18500
Zn	Zn	0.93410 0.82310 0.85560 1.22700
Zn	Zn	0.97930 0.64210 0.91080 1.18300
Zn	Zn	0.43410 0.67690 0.14440 1.22800
Zn	Zn	0.47930 0.85790 0.08920 1.18500
Zn	Zn	0.06590 0.32310 0.64440 1.22800
Zn	Zn	0.02070 0.14210 0.58920 1.18400
H 	H 	0.46940 0.79520 0.36850 0.06000
H 	H 	0.53340 0.72140 0.36540 0.07200
H 	H 	0.59500 0.93180 0.26170 0.06700
H 	H 	0.50700 0.92340 0.30540 0.06200
H 	H 	0.73270 0.93710 0.33330 0.06000
H 	H 	0.73210 0.93220 0.42120 0.06700
H 	H 	0.67290 0.72770 0.43480 0.06500
H 	H 	0.69600 0.80340 0.48390 0.05400
H 	H 	0.59190 0.92090 0.49050 0.07900
H 	H 	0.50500 0.91680 0.44450 0.07500
H 	H 	0.69730 0.81670 0.25880 0.06100
H 	H 	0.67390 0.73580 0.30000 0.06700
H 	H 	0.03060 0.20480 0.86850 0.05900
H 	H 	0.96660 0.27860 0.86540 0.07100
H 	H 	0.90500 0.06820 0.76170 0.06900
H 	H 	0.99300 0.07660 0.80540 0.06400
H 	H 	0.76730 0.06290 0.83330 0.06200
H 	H 	0.76790 0.06780 0.92120 0.06900
H 	H 	0.82710 0.27230 0.93480 0.06400
H 	H 	0.80400 0.19660 0.98390 0.05300
H 	H 	0.90810 0.07910 0.99050 0.07900
H 	H 	0.99500 0.08320 0.94450 0.07600
H 	H 	0.80270 0.18330 0.75880 0.06100
H 	H 	0.82610 0.26420 0.80000 0.06700
H 	H 	0.53060 0.29520 0.13150 0.06100
H 	H 	0.46660 0.22140 0.13460 0.07200
H 	H 	0.40500 0.43180 0.23830 0.06800
H 	H 	0.49300 0.42340 0.19460 0.06200
H 	H 	0.26730 0.43710 0.16670 0.06100
H 	H 	0.26790 0.43220 0.07880 0.06800
H 	H 	0.32710 0.22770 0.06520 0.06500
H 	H 	0.30400 0.30340 0.01610 0.05300
H 	H 	0.40810 0.42090 0.00950 0.07900
H 	H 	0.49500 0.41680 0.05550 0.07600
H 	H 	0.30270 0.31670 0.24120 0.06100
H 	H 	0.32610 0.23580 0.20000 0.06700
H 	H 	0.96940 0.70480 0.63150 0.05500
H 	H 	0.03340 0.77860 0.63460 0.07100
H 	H 	0.09500 0.56820 0.73830 0.06800
H 	H 	0.00700 0.57660 0.69460 0.06300
H 	H 	0.23270 0.56290 0.66670 0.06100
H 	H 	0.23210 0.56780 0.57880 0.06800
H 	H 	0.17290 0.77230 0.56520 0.06500
H 	H 	0.19600 0.69660 0.51610 0.05400
H 	H 	0.09190 0.57910 0.50950 0.07900
H 	H 	0.00500 0.58320 0.55550 0.07500
H 	H 	0.19730 0.68330 0.74120 0.06100
H 	H 	0.17390 0.76420 0.70000 0.06800
H 	H 	0.53060 0.20480 0.63150 0.06000
H 	H 	0.46660 0.27860 0.63460 0.07200
H 	H 	0.40500 0.06820 0.73830 0.06700
H 	H 	0.49300 0.07660 0.69460 0.06200
H 	H 	0.26730 0.06290 0.66670 0.06000
H 	H 	0.26790 0.06780 0.57880 0.06700
H 	H 	0.32710 0.27230 0.56520 0.06500
H 	H 	0.30400 0.19660 0.51610 0.05400
H 	H 	0.40810 0.07910 0.50950 0.07900
H 	H 	0.49500 0.08320 0.55550 0.07500
H 	H 	0.30270 0.18330 0.74120 0.06100
H 	H 	0.32610 0.26420 0.70000 0.06700
H 	H 	0.96940 0.79520 0.13150 0.05900
H 	H 	0.03340 0.72140 0.13460 0.07100
H 	H 	0.09500 0.93180 0.23830 0.06900
H 	H 	0.00700 0.92340 0.19460 0.06400
H 	H 	0.23270 0.93710 0.16670 0.06200
H 	H 	0.23210 0.93220 0.07880 0.06900
H 	H 	0.17290 0.72770 0.06520 0.06400
H 	H 	0.19600 0.80340 0.01610 0.05300
H 	H 	0.09190 0.92090 0.00950 0.07900
H 	H 	0.00500 0.91680 0.05550 0.07600
H 	H 	0.19730 0.81670 0.24120 0.06100
H 	H 	0.17390 0.73580 0.20000 0.06700
H 	H 	0.46940 0.70480 0.86850 0.06100
H 	H 	0.53340 0.77860 0.86540 0.07200
H 	H 	0.59500 0.56820 0.76170 0.06800
H 	H 	0.50700 0.57660 0.80540 0.06200
H 	H 	0.73270 0.56290 0.83330 0.06100
H 	H 	0.73210 0.56780 0.92120 0.06800
H 	H 	0.67290 0.77230 0.93480 0.06500
H 	H 	0.69600 0.69660 0.98390 0.05300
H 	H 	0.59190 0.57910 0.99050 0.07900
H 	H 	0.50500 0.58320 0.94450 0.07600
H 	H 	0.69730 0.68330 0.75880 0.06100
H 	H 	0.67390 0.76420 0.80000 0.06700
H 	H 	0.03060 0.29520 0.36850 0.05500
H 	H 	0.96660 0.22140 0.36540 0.07100
H 	H 	0.90500 0.43180 0.26170 0.06800
H 	H 	0.99300 0.42340 0.30540 0.06300
H 	H 	0.76730 0.43710 0.33330 0.06100
H 	H 	0.76790 0.43220 0.42120 0.06800
H 	H 	0.82710 0.22770 0.43480 0.06500
H 	H 	0.80400 0.30340 0.48390 0.05400
H 	H 	0.90810 0.42090 0.49050 0.07900
H 	H 	0.99500 0.41680 0.44450 0.07500
H 	H 	0.80270 0.31670 0.25880 0.06100
H 	H 	0.82610 0.23580 0.30000 0.06800
C 	C 	0.53030 0.77010 0.50590 0.39100
C 	C 	0.57360 0.80920 0.44030 -0.02100
C 	C 	0.53000 0.77980 0.36840 -0.11300
C 	C 	0.57510 0.81690 0.30150 -0.01500
C 	C 	0.56760 0.90790 0.30540 -0.12300
C 	C 	0.61140 0.93900 0.37680 0.01100
C 	C 	0.70370 0.91290 0.37600 -0.11900
C 	C 	0.71280 0.82360 0.37180 -0.02300
C 	C 	0.66790 0.78600 0.43790 -0.10800
C 	C 	0.56570 0.90140 0.44440 -0.12800
C 	C 	0.66880 0.79410 0.30260 -0.10800
C 	C 	0.53280 0.78990 0.23060 0.36000
C 	C 	0.60640 0.02890 0.38180 0.28300
C 	C 	0.80610 0.79930 0.37410 0.39300
C 	C 	0.96970 0.22990 0.00590 0.39600
C 	C 	0.92640 0.19080 0.94030 -0.02500
C 	C 	0.97000 0.22020 0.86840 -0.11100
C 	C 	0.92490 0.18310 0.80150 -0.01500
C 	C 	0.93240 0.09210 0.80540 -0.12600
C 	C 	0.88860 0.06100 0.87680 0.01700
C 	C 	0.79630 0.08710 0.87600 -0.12200
C 	C 	0.78720 0.17640 0.87180 -0.02200
C 	C 	0.83210 0.21400 0.93790 -0.10700
C 	C 	0.93430 0.09860 0.94440 -0.12900
C 	C 	0.83120 0.20590 0.80260 -0.10900
C 	C 	0.96720 0.21010 0.73060 0.36100
C 	C 	0.89360 0.97110 0.88180 0.27600
C 	C 	0.69390 0.20070 0.87410 0.39300
C 	C 	0.46970 0.27010 0.99410 0.39100
C 	C 	0.42640 0.30920 0.05970 -0.02100
C 	C 	0.47000 0.27980 0.13160 -0.11400
C 	C 	0.42490 0.31690 0.19850 -0.01500
C 	C 	0.43240 0.40790 0.19460 -0.12400
C 	C 	0.38860 0.43900 0.12320 0.01300
C 	C 	0.29630 0.41290 0.12400 -0.12000
C 	C 	0.28720 0.32360 0.12820 -0.02200
C 	C 	0.33210 0.28600 0.06210 -0.10800
C 	C 	0.43430 0.40140 0.05560 -0.12900
C 	C 	0.33120 0.29410 0.19740 -0.10900
C 	C 	0.46720 0.28990 0.26940 0.36000
C 	C 	0.39360 0.52890 0.11820 0.28100
C 	C 	0.19390 0.29930 0.12590 0.39300
C 	C 	0.03030 0.72990 0.49410 0.39200
C 	C 	0.07360 0.69080 0.55970 -0.02300
C 	C 	0.03000 0.72020 0.63160 -0.10400
C 	C 	0.07510 0.68310 0.69850 -0.01900
C 	C 	0.06760 0.59210 0.69460 -0.12300
C 	C 	0.11140 0.56100 0.62320 0.01200
C 	C 	0.20370 0.58710 0.62400 -0.12000
C 	C 	0.21280 0.67640 0.62820 -0.02300
C 	C 	0.16790 0.71400 0.56210 -0.10700
C 	C 	0.06570 0.59860 0.55560 -0.12800
C 	C 	0.16880 0.70590 0.69740 -0.10700
C 	C 	0.03280 0.71010 0.76940 0.36800
C 	C 	0.10640 0.47110 0.61820 0.28100
C 	C 	0.30610 0.70070 0.62590 0.39300
C 	C 	0.46970 0.22990 0.49410 0.39100
C 	C 	0.42640 0.19080 0.55970 -0.02100
C 	C 	0.47000 0.22020 0.63160 -0.11300
C 	C 	0.42490 0.18310 0.69850 -0.01500
C 	C 	0.43240 0.09210 0.69460 -0.12300
C 	C 	0.38860 0.06100 0.62320 0.01100
C 	C 	0.29630 0.08710 0.62400 -0.11900
C 	C 	0.28720 0.17640 0.62820 -0.02300
C 	C 	0.33210 0.21400 0.56210 -0.10800
C 	C 	0.43430 0.09860 0.55560 -0.12800
C 	C 	0.33120 0.20590 0.69740 -0.10800
C 	C 	0.46720 0.21010 0.76940 0.36000
C 	C 	0.39360 0.97110 0.61820 0.28300
C 	C 	0.19390 0.20070 0.62590 0.39300
C 	C 	0.03030 0.77010 0.99410 0.39600
C 	C 	0.07360 0.80920 0.05970 -0.02500
C 	C 	0.03000 0.77980 0.13160 -0.11100
C 	C 	0.07510 0.81690 0.19850 -0.01500
C 	C 	0.06760 0.90790 0.19460 -0.12600
C 	C 	0.11140 0.93900 0.12320 0.01700
C 	C 	0.20370 0.91290 0.12400 -0.12200
C 	C 	0.21280 0.82360 0.12820 -0.02200
C 	C 	0.16790 0.78600 0.06210 -0.10700
C 	C 	0.06570 0.90140 0.05560 -0.12900
C 	C 	0.16880 0.79410 0.19740 -0.10900
C 	C 	0.03280 0.78990 0.26940 0.36100
C 	C 	0.10640 0.02890 0.11820 0.27600
C 	C 	0.30610 0.79930 0.12590 0.39300
C 	C 	0.53030 0.72990 0.00590 0.39100
C 	C 	0.57360 0.69080 0.94030 -0.02100
C 	C 	0.53000 0.72020 0.86840 -0.11400
C 	C 	0.57510 0.68310 0.80150 -0.01500
C 	C 	0.56760 0.59210 0.80540 -0.12400
C 	C 	0.61140 0.56100 0.87680 0.01300
C 	C 	0.70370 0.58710 0.87600 -0.12000
C 	C 	0.71280 0.67640 0.87180 -0.02200
C 	C 	0.66790 0.71400 0.93790 -0.10800
C 	C 	0.56570 0.59860 0.94440 -0.12900
C 	C 	0.66880 0.70590 0.80260 -0.10900
C 	C 	0.53280 0.71010 0.73060 0.36000
C 	C 	0.60640 0.47110 0.88180 0.28100
C 	C 	0.80610 0.70070 0.87410 0.39300
C 	C 	0.96970 0.27010 0.50590 0.39200
C 	C 	0.92640 0.30920 0.44030 -0.02300
C 	C 	0.97000 0.27980 0.36840 -0.10400
C 	C 	0.92490 0.31690 0.30150 -0.01900
C 	C 	0.93240 0.40790 0.30540 -0.12300
C 	C 	0.88860 0.43900 0.37680 0.01200
C 	C 	0.79630 0.41290 0.37600 -0.12000
C 	C 	0.78720 0.32360 0.37180 -0.02300
C 	C 	0.83210 0.28600 0.43790 -0.10700
C 	C 	0.93430 0.40140 0.44440 -0.12800
C 	C 	0.83120 0.29410 0.30260 -0.10700
C 	C 	0.96720 0.28990 0.23060 0.36800
C 	C 	0.89360 0.52890 0.38180 0.28100
C 	C 	0.69390 0.29930 0.37410 0.39300
O 	O 	0.50810 0.81380 0.55790 -0.51500
O 	O 	0.52080 0.69760 0.50400 -0.53900
O 	O 	0.48980 0.72830 0.23050 -0.48600
O 	O 	0.54970 0.83040 0.17390 -0.52300
O 	O 	0.56660 0.06600 0.33010 -0.44100
O 	O 	0.63680 0.06430 0.43380 -0.32400
O 	O 	0.85930 0.85020 0.39200 -0.55700
O 	O 	0.82270 0.72950 0.35820 -0.50000
O 	O 	0.99190 0.18620 0.05790 -0.51100
O 	O 	0.97920 0.30240 0.00400 -0.53600
O 	O 	0.01020 0.27170 0.73050 -0.48700
O 	O 	0.95030 0.16960 0.67390 -0.52200
O 	O 	0.93340 0.93400 0.83010 -0.44200
O 	O 	0.86320 0.93570 0.93380 -0.32600
O 	O 	0.64070 0.14980 0.89200 -0.55500
O 	O 	0.67730 0.27050 0.85820 -0.50000
O 	O 	0.49190 0.31380 0.94210 -0.51500
O 	O 	0.47920 0.19760 0.99600 -0.53900
O 	O 	0.51020 0.22830 0.26950 -0.48500
O 	O 	0.45030 0.33040 0.32610 -0.52300
O 	O 	0.43340 0.56600 0.16990 -0.44100
O 	O 	0.36320 0.56430 0.06620 -0.32500
O 	O 	0.14070 0.35020 0.10800 -0.55700
O 	O 	0.17730 0.22950 0.14180 -0.50100
O 	O 	0.00810 0.68620 0.44210 -0.51500
O 	O 	0.02080 0.80240 0.49600 -0.53700
O 	O 	0.98980 0.77170 0.76950 -0.49200
O 	O 	0.04970 0.66960 0.82610 -0.52300
O 	O 	0.06660 0.43400 0.66990 -0.44100
O 	O 	0.13680 0.43570 0.56620 -0.32500
O 	O 	0.35930 0.64980 0.60800 -0.55500
O 	O 	0.32270 0.77050 0.64180 -0.50000
O 	O 	0.49190 0.18620 0.44210 -0.51500
O 	O 	0.47920 0.30240 0.49600 -0.53900
O 	O 	0.51020 0.27170 0.76950 -0.48600
O 	O 	0.45030 0.16960 0.82610 -0.52300
O 	O 	0.43340 0.93400 0.66990 -0.44100
O 	O 	0.36320 0.93570 0.56620 -0.32400
O 	O 	0.14070 0.14980 0.60800 -0.55700
O 	O 	0.17730 0.27050 0.64180 -0.50000
O 	O 	0.00810 0.81380 0.94210 -0.51100
O 	O 	0.02080 0.69760 0.99600 -0.53600
O 	O 	0.98980 0.72830 0.26950 -0.48700
O 	O 	0.04970 0.83040 0.32610 -0.52200
O 	O 	0.06660 0.06600 0.16990 -0.44200
O 	O 	0.13680 0.06430 0.06620 -0.32600
O 	O 	0.35930 0.85020 0.10800 -0.55500
O 	O 	0.32270 0.72950 0.14180 -0.50000
O 	O 	0.50810 0.68620 0.05790 -0.51500
O 	O 	0.52080 0.80240 0.00400 -0.53900
O 	O 	0.48980 0.77170 0.73050 -0.48500
O 	O 	0.54970 0.66960 0.67390 -0.52300
O 	O 	0.56660 0.43400 0.83010 -0.44100
O 	O 	0.63680 0.43570 0.93380 -0.32500
O 	O 	0.85930 0.64980 0.89200 -0.55700
O 	O 	0.82270 0.77050 0.85820 -0.50100
O 	O 	0.99190 0.31380 0.55790 -0.51500
O 	O 	0.97920 0.19760 0.50400 -0.53700
O 	O 	0.01020 0.22830 0.23050 -0.49200
O 	O 	0.95030 0.33040 0.17390 -0.52300
O 	O 	0.93340 0.56600 0.33010 -0.44100
O 	O 	0.86320 0.56430 0.43380 -0.32500
O 	O 	0.64070 0.35020 0.39200 -0.55500
O 	O 	0.67730 0.22950 0.35820 -0.50000
