data_crystal

_cell_length_a 10.32700
_cell_length_b 11.06700
_cell_length_c 11.69200
_cell_angle_alpha 112.33000
_cell_angle_beta  97.31000
_cell_angle_gamma 106.79000

_symmetry_space_group_name_	'P 1'
_symmetry_space_group_name_H-M	'P 1'

loop_
_symmetry_equiv_pos_as_xyz
  x,y,z

loop_
_atom_site_label
_atom_site_type_symbol
_atom_site_fract_x
_atom_site_fract_y
_atom_site_fract_z
_atom_site_charge
Zn	Zn	0.83336 0.16711 0.86002 1.19600
Zn	Zn	0.16664 0.83289 0.13998 1.19000
Zn	Zn	-0.00000 0.00000 -0.00000 1.18300
H 	H 	0.09520 0.33090 0.33600 0.07900
H 	H 	0.22810 0.45370 0.56800 0.07700
H 	H 	0.74930 0.39890 0.22380 0.04900
H 	H 	0.67750 0.66020 0.82000 0.06300
H 	H 	0.55810 0.42730 0.68550 0.04700
H 	H 	0.57510 0.76360 0.53490 0.07100
H 	H 	0.35250 0.14600 0.91420 0.07000
H 	H 	0.58400 0.29060 0.98310 0.00000
H 	H 	0.23320 0.46910 0.94010 0.09600
H 	H 	0.90480 0.66910 0.66400 0.04500
H 	H 	0.77190 0.54630 0.43200 0.06100
H 	H 	0.25070 0.60110 0.77620 0.02800
H 	H 	0.32250 0.33980 0.18000 0.01900
H 	H 	0.44190 0.57270 0.31450 0.06200
H 	H 	0.42490 0.23640 0.46510 0.03600
H 	H 	0.64750 0.85400 0.08580 0.01000
H 	H 	0.41600 0.70940 0.01690 0.10000
H 	H 	0.76680 0.53090 0.05990 0.00800
C 	C 	0.91050 0.25530 0.12470 0.34600
C 	C 	0.92180 0.35040 0.26040 0.00600
C 	C 	0.03170 0.37530 0.35630 -0.15800
C 	C 	0.05030 0.46760 0.48600 0.02000
C 	C 	0.16260 0.49570 0.58640 -0.13000
C 	C 	0.82340 0.41580 0.28920 -0.02800
C 	C 	0.72080 0.88790 0.77830 0.34700
C 	C 	0.63920 0.73580 0.68890 -0.05200
C 	C 	0.63340 0.63270 0.73490 -0.01300
C 	C 	0.56310 0.49370 0.65420 -0.06400
C 	C 	0.57330 0.69550 0.56350 -0.05900
C 	C 	0.49760 0.44890 0.52330 -0.00300
C 	C 	0.11740 0.20050 0.88520 0.33800
C 	C 	0.26850 0.29460 0.92200 -0.00200
C 	C 	0.37620 0.24070 0.93430 -0.10400
C 	C 	0.51460 0.32730 0.97530 0.08200
C 	C 	0.55370 0.47270 0.00640 -0.18800
C 	C 	0.30400 0.43460 0.95000 -0.16000
C 	C 	0.08950 0.74470 0.87530 0.40100
C 	C 	0.07820 0.64960 0.73960 -0.17100
C 	C 	0.96830 0.62470 0.64370 0.05900
C 	C 	0.94970 0.53240 0.51400 0.03400
C 	C 	0.83740 0.50430 0.41360 -0.05800
C 	C 	0.17660 0.58420 0.71080 0.05700
C 	C 	0.27920 0.11210 0.22170 0.36700
C 	C 	0.36080 0.26420 0.31110 -0.11300
C 	C 	0.36660 0.36730 0.26510 0.02600
C 	C 	0.43690 0.50630 0.34580 -0.11000
C 	C 	0.42670 0.30450 0.43650 -0.02000
C 	C 	0.50240 0.55110 0.47670 0.04200
C 	C 	0.88260 0.79950 0.11480 0.38100
C 	C 	0.73150 0.70540 0.07800 -0.16300
C 	C 	0.62380 0.75930 0.06570 0.11900
C 	C 	0.48540 0.67270 0.02470 -0.27300
C 	C 	0.44630 0.52730 0.99360 0.22700
C 	C 	0.69600 0.56540 0.05000 0.07700
O 	O 	0.99350 0.19155 0.10729 -0.44000
O 	O 	0.81900 0.24940 0.03622 -0.50300
O 	O 	0.71360 0.97787 0.73584 -0.42800
O 	O 	0.79130 0.92181 0.88808 -0.39000
O 	O 	0.08630 0.07771 0.87559 -0.45900
O 	O 	0.02710 0.25320 0.86540 -0.51200
O 	O 	0.00650 0.80845 0.89271 -0.45600
O 	O 	0.18100 0.75060 0.96378 -0.46200
O 	O 	0.28640 0.02213 0.26416 -0.54100
O 	O 	0.20870 0.07819 0.11192 -0.51700
O 	O 	0.91370 0.92229 0.12441 -0.38400
O 	O 	0.97290 0.74680 0.13460 -0.45800
