data_crystal

_cell_length_a 8.15800
_cell_length_b 17.41800
_cell_length_c 17.55800
_cell_angle_alpha 90.00000
_cell_angle_beta  98.28000
_cell_angle_gamma 90.00000

_symmetry_space_group_name_	'P 1'
_symmetry_space_group_name_H-M	'P 1'

loop_
_symmetry_equiv_pos_as_xyz
  x,y,z

loop_
_atom_site_label
_atom_site_type_symbol
_atom_site_fract_x
_atom_site_fract_y
_atom_site_fract_z
_atom_site_charge
Zn	Zn	0.75419 0.30583 0.75174 1.21100
Zn	Zn	0.74581 0.80583 0.74826 1.21100
Zn	Zn	0.24581 0.69417 0.24826 1.21100
Zn	Zn	0.25419 0.19417 0.25174 1.21100
H 	H 	0.05090 0.27210 0.97470 0.08700
H 	H 	0.49420 0.33350 0.08630 0.10300
H 	H 	0.34910 0.40280 0.86830 0.10500
H 	H 	0.67470 0.43460 0.07840 0.04600
H 	H 	0.75100 0.36020 0.04710 0.04300
H 	H 	0.00590 0.43770 0.11540 0.05400
H 	H 	0.76860 0.49320 0.90880 0.06500
H 	H 	0.41440 0.24020 0.69470 -0.01100
H 	H 	0.20070 0.17880 0.73860 0.11800
H 	H 	0.48240 0.16570 0.94590 0.11500
H 	H 	0.68470 0.23120 0.89620 -0.01000
H 	H 	0.73080 0.09040 0.78240 0.10700
H 	H 	0.62770 0.96980 0.74730 -0.01700
H 	H 	0.06580 0.87990 0.78890 -0.02000
H 	H 	0.18220 0.99620 0.82730 0.12100
H 	H 	0.44910 0.77210 0.52530 0.08600
H 	H 	0.00580 0.83350 0.41370 0.10200
H 	H 	0.15090 0.90280 0.63170 0.10400
H 	H 	0.82530 0.93460 0.42160 0.04500
H 	H 	0.74900 0.86020 0.45290 0.04300
H 	H 	0.49410 0.93770 0.38460 0.05500
H 	H 	0.73140 0.99320 0.59120 0.06500
H 	H 	0.08560 0.74020 0.80530 -0.01100
H 	H 	0.29930 0.67880 0.76140 0.11800
H 	H 	0.01760 0.66570 0.55410 0.11500
H 	H 	0.81530 0.73120 0.60380 -0.01000
H 	H 	0.76920 0.59040 0.71760 0.10700
H 	H 	0.87230 0.46980 0.75270 -0.01700
H 	H 	0.43420 0.37990 0.71110 -0.02000
H 	H 	0.31780 0.49620 0.67270 0.12100
H 	H 	0.94910 0.72790 0.02530 0.08600
H 	H 	0.50580 0.66650 0.91370 0.10200
H 	H 	0.65090 0.59720 0.13170 0.10400
H 	H 	0.32530 0.56540 0.92160 0.04500
H 	H 	0.24900 0.63980 0.95290 0.04300
H 	H 	0.99410 0.56230 0.88460 0.05400
H 	H 	0.23140 0.50680 0.09120 0.06500
H 	H 	0.58560 0.75980 0.30530 -0.01100
H 	H 	0.79930 0.82120 0.26140 0.11800
H 	H 	0.51760 0.83430 0.05410 0.11500
H 	H 	0.31530 0.76880 0.10380 -0.01000
H 	H 	0.26920 0.90960 0.21760 0.10700
H 	H 	0.37230 0.03020 0.25270 -0.01700
H 	H 	0.93420 0.12010 0.21110 -0.02000
H 	H 	0.81780 0.00380 0.17270 0.12100
H 	H 	0.55090 0.22790 0.47470 0.08600
H 	H 	0.99420 0.16650 0.58630 0.10200
H 	H 	0.84910 0.09720 0.36830 0.10400
H 	H 	0.17470 0.06540 0.57840 0.04500
H 	H 	0.25100 0.13980 0.54710 0.04300
H 	H 	0.50590 0.06230 0.61540 0.05500
H 	H 	0.26860 0.00680 0.40880 0.06500
H 	H 	0.91440 0.25980 0.19470 -0.01100
H 	H 	0.70070 0.32120 0.23860 0.11800
H 	H 	0.98240 0.33430 0.44590 0.11500
H 	H 	0.18470 0.26880 0.39620 -0.01000
H 	H 	0.23080 0.40960 0.28240 0.10700
H 	H 	0.12770 0.53020 0.24730 -0.01700
H 	H 	0.56580 0.62010 0.28890 -0.02000
H 	H 	0.68220 0.50380 0.32730 0.12100
C 	C 	0.05700 0.33860 0.83960 0.29100
C 	C 	0.18080 0.33720 0.91150 0.01000
C 	C 	0.15090 0.29780 0.97520 -0.06400
C 	C 	0.26830 0.29560 0.04040 0.00900
C 	C 	0.23120 0.25280 0.11080 0.28400
C 	C 	0.41620 0.33390 0.04210 -0.15700
C 	C 	0.44730 0.37320 0.97680 0.20100
C 	C 	0.32890 0.37560 0.91150 -0.15200
C 	C 	0.71650 0.41240 0.03430 -0.01400
C 	C 	0.86280 0.45870 0.01580 0.04200
C 	C 	0.00250 0.46310 0.06850 -0.06100
C 	C 	0.86180 0.49600 0.94600 -0.05300
C 	C 	0.42670 0.22600 0.74620 0.11500
C 	C 	0.29770 0.18870 0.77190 -0.20600
C 	C 	0.31350 0.16580 0.84860 0.18700
C 	C 	0.46460 0.18150 0.89480 -0.20300
C 	C 	0.58630 0.22030 0.86430 0.11200
C 	C 	0.97140 0.05700 0.81130 0.18900
C 	C 	0.80160 0.04830 0.78540 -0.20700
C 	C 	0.74050 0.97510 0.76400 0.12600
C 	C 	0.99760 0.92270 0.78880 0.11600
C 	C 	0.06860 0.99270 0.81170 -0.20600
C 	C 	0.44300 0.83860 0.66040 0.29100
C 	C 	0.31920 0.83720 0.58850 0.00900
C 	C 	0.34910 0.79780 0.52480 -0.06400
C 	C 	0.23170 0.79560 0.45960 0.00800
C 	C 	0.26880 0.75280 0.38920 0.28400
C 	C 	0.08380 0.83390 0.45790 -0.15700
C 	C 	0.05270 0.87320 0.52320 0.20100
C 	C 	0.17110 0.87560 0.58850 -0.15200
C 	C 	0.78350 0.91240 0.46570 -0.01400
C 	C 	0.63720 0.95870 0.48420 0.04300
C 	C 	0.49750 0.96310 0.43150 -0.06200
C 	C 	0.63820 0.99600 0.55400 -0.05300
C 	C 	0.07330 0.72600 0.75380 0.11500
C 	C 	0.20230 0.68870 0.72810 -0.20600
C 	C 	0.18650 0.66580 0.65140 0.18700
C 	C 	0.03540 0.68150 0.60520 -0.20300
C 	C 	0.91370 0.72030 0.63570 0.11200
C 	C 	0.52860 0.55700 0.68870 0.18900
C 	C 	0.69840 0.54830 0.71460 -0.20700
C 	C 	0.75950 0.47510 0.73600 0.12600
C 	C 	0.50240 0.42270 0.71120 0.11600
C 	C 	0.43140 0.49270 0.68830 -0.20600
C 	C 	0.94300 0.66140 0.16040 0.29100
C 	C 	0.81920 0.66280 0.08850 0.01000
C 	C 	0.84910 0.70220 0.02480 -0.06400
C 	C 	0.73170 0.70440 0.95960 0.00900
C 	C 	0.76880 0.74720 0.88920 0.28400
C 	C 	0.58380 0.66610 0.95790 -0.15700
C 	C 	0.55270 0.62680 0.02320 0.20100
C 	C 	0.67110 0.62440 0.08850 -0.15200
C 	C 	0.28350 0.58760 0.96570 -0.01400
C 	C 	0.13720 0.54130 0.98420 0.04200
C 	C 	0.99750 0.53690 0.93150 -0.06100
C 	C 	0.13820 0.50400 0.05400 -0.05300
C 	C 	0.57330 0.77400 0.25380 0.11500
C 	C 	0.70230 0.81130 0.22810 -0.20600
C 	C 	0.68650 0.83420 0.15140 0.18700
C 	C 	0.53540 0.81850 0.10520 -0.20300
C 	C 	0.41370 0.77970 0.13570 0.11200
C 	C 	0.02860 0.94300 0.18870 0.18900
C 	C 	0.19840 0.95170 0.21460 -0.20700
C 	C 	0.25950 0.02490 0.23600 0.12600
C 	C 	0.00240 0.07730 0.21120 0.11600
C 	C 	0.93140 0.00730 0.18830 -0.20600
C 	C 	0.55700 0.16140 0.33960 0.29100
C 	C 	0.68080 0.16280 0.41150 0.00900
C 	C 	0.65090 0.20220 0.47520 -0.06400
C 	C 	0.76830 0.20440 0.54040 0.00800
C 	C 	0.73120 0.24720 0.61080 0.28400
C 	C 	0.91620 0.16610 0.54210 -0.15700
C 	C 	0.94730 0.12680 0.47680 0.20100
C 	C 	0.82890 0.12440 0.41150 -0.15200
C 	C 	0.21650 0.08760 0.53430 -0.01400
C 	C 	0.36280 0.04130 0.51580 0.04300
C 	C 	0.50250 0.03690 0.56850 -0.06200
C 	C 	0.36180 0.00400 0.44600 -0.05300
C 	C 	0.92670 0.27400 0.24620 0.11500
C 	C 	0.79770 0.31130 0.27190 -0.20600
C 	C 	0.81350 0.33420 0.34860 0.18700
C 	C 	0.96460 0.31850 0.39480 -0.20300
C 	C 	0.08630 0.27970 0.36430 0.11200
C 	C 	0.47140 0.44300 0.31130 0.18900
C 	C 	0.30160 0.45170 0.28540 -0.20700
C 	C 	0.24050 0.52490 0.26400 0.12600
C 	C 	0.49760 0.57730 0.28880 0.11600
C 	C 	0.56860 0.50730 0.31170 -0.20600
N 	N 	0.57030 0.24340 0.79060 -0.27700
N 	N 	0.18960 0.12930 0.87930 -0.10500
N 	N 	0.03290 0.12680 0.83670 -0.10700
N 	N 	0.83280 0.91410 0.76640 -0.28700
N 	N 	0.92970 0.74340 0.70940 -0.27700
N 	N 	0.31040 0.62930 0.62070 -0.10500
N 	N 	0.46710 0.62680 0.66330 -0.10800
N 	N 	0.66720 0.41410 0.73360 -0.28700
N 	N 	0.42970 0.75660 0.20940 -0.27700
N 	N 	0.81040 0.87070 0.12070 -0.10500
N 	N 	0.96710 0.87320 0.16330 -0.10700
N 	N 	0.16720 0.08590 0.23360 -0.28700
N 	N 	0.07030 0.25660 0.29060 -0.27700
N 	N 	0.68960 0.37070 0.37930 -0.10500
N 	N 	0.53290 0.37320 0.33670 -0.10800
N 	N 	0.33280 0.58590 0.26640 -0.28700
O 	O 	0.92670 0.29600 0.84070 -0.42900
O 	O 	0.08030 0.37760 0.78370 -0.29600
O 	O 	0.09610 0.21890 0.10980 -0.31300
O 	O 	0.33970 0.25320 0.16990 -0.43200
O 	O 	0.59050 0.41230 0.97030 -0.22600
O 	O 	0.57330 0.79600 0.65930 -0.42900
O 	O 	0.41970 0.87760 0.71630 -0.29600
O 	O 	0.40390 0.71890 0.39020 -0.31300
O 	O 	0.16030 0.75320 0.33010 -0.43200
O 	O 	0.90950 0.91230 0.52970 -0.22600
O 	O 	0.07330 0.70400 0.15930 -0.42900
O 	O 	0.91970 0.62240 0.21630 -0.29600
O 	O 	0.90390 0.78110 0.89020 -0.31300
O 	O 	0.66030 0.74680 0.83010 -0.43200
O 	O 	0.40950 0.58770 0.02970 -0.22600
O 	O 	0.42670 0.20400 0.34070 -0.42900
O 	O 	0.58030 0.12240 0.28370 -0.29600
O 	O 	0.59610 0.28110 0.60980 -0.31300
O 	O 	0.83970 0.24680 0.66990 -0.43200
O 	O 	0.09050 0.08770 0.47030 -0.22600
