data_crystal

_cell_length_a 18.28300
_cell_length_b 18.28300
_cell_length_c 18.28300
_cell_angle_alpha 60.00000
_cell_angle_beta  60.00000
_cell_angle_gamma 60.00000

_symmetry_space_group_name_	'P 1'
_symmetry_space_group_name_H-M	'P 1'

loop_
_symmetry_equiv_pos_as_xyz
  x,y,z

loop_
_atom_site_label
_atom_site_type_symbol
_atom_site_fract_x
_atom_site_fract_y
_atom_site_fract_z
_atom_site_charge
Zn	Zn	0.20670 0.37990 0.20670 1.21500
Zn	Zn	0.37990 0.20670 0.20670 1.21500
Zn	Zn	0.20670 0.20670 0.20670 1.21500
Zn	Zn	0.20670 0.20670 0.37990 1.21500
Zn	Zn	0.62010 0.79330 0.79330 1.21500
Zn	Zn	0.79330 0.62010 0.79330 1.21500
Zn	Zn	0.79330 0.79330 0.79330 1.21500
Zn	Zn	0.79330 0.79330 0.62010 1.21500
H 	H 	0.04940 0.56380 0.04940 0.04300
H 	H 	0.56380 0.04940 0.33740 0.04300
H 	H 	0.04940 0.33740 0.04940 0.04300
H 	H 	0.33740 0.04940 0.56380 0.04300
H 	H 	0.04940 0.04940 0.33740 0.04300
H 	H 	0.56380 0.33740 0.04940 0.04300
H 	H 	0.04940 0.04940 0.56380 0.04300
H 	H 	0.33740 0.56380 0.04940 0.04300
H 	H 	0.04940 0.33740 0.56380 0.04300
H 	H 	0.56380 0.04940 0.04940 0.04300
H 	H 	0.04940 0.56380 0.33740 0.04300
H 	H 	0.33740 0.04940 0.04940 0.04300
H 	H 	0.43620 0.95060 0.95060 0.04300
H 	H 	0.95060 0.43620 0.66260 0.04300
H 	H 	0.66260 0.95060 0.95060 0.04300
H 	H 	0.95060 0.66260 0.43620 0.04300
H 	H 	0.95060 0.95060 0.66260 0.04300
H 	H 	0.66260 0.43620 0.95060 0.04300
H 	H 	0.95060 0.95060 0.43620 0.04300
H 	H 	0.43620 0.66260 0.95060 0.04300
H 	H 	0.66260 0.95060 0.43620 0.04300
H 	H 	0.95060 0.43620 0.95060 0.04300
H 	H 	0.43620 0.95060 0.66260 0.04300
H 	H 	0.95060 0.66260 0.95060 0.04300
C 	C 	0.02700 0.53820 0.02700 -0.00300
C 	C 	0.53820 0.02700 0.40780 -0.00300
C 	C 	0.02700 0.40780 0.02700 -0.00300
C 	C 	0.40780 0.02700 0.53820 -0.00300
C 	C 	0.02700 0.02700 0.40780 -0.00300
C 	C 	0.53820 0.40780 0.02700 -0.00300
C 	C 	0.02700 0.02700 0.53820 -0.00300
C 	C 	0.40780 0.53820 0.02700 -0.00300
C 	C 	0.02700 0.40780 0.53820 -0.00300
C 	C 	0.53820 0.02700 0.02700 -0.00300
C 	C 	0.02700 0.53820 0.40780 -0.00300
C 	C 	0.40780 0.02700 0.02700 -0.00300
C 	C 	0.46180 0.97300 0.97300 -0.00300
C 	C 	0.97300 0.46180 0.59220 -0.00300
C 	C 	0.59220 0.97300 0.97300 -0.00300
C 	C 	0.97300 0.59220 0.46180 -0.00300
C 	C 	0.97300 0.97300 0.59220 -0.00300
C 	C 	0.59220 0.46180 0.97300 -0.00300
C 	C 	0.97300 0.97300 0.46180 -0.00300
C 	C 	0.46180 0.59220 0.97300 -0.00300
C 	C 	0.59220 0.97300 0.46180 -0.00300
C 	C 	0.97300 0.46180 0.97300 -0.00300
C 	C 	0.46180 0.97300 0.59220 -0.00300
C 	C 	0.97300 0.59220 0.97300 -0.00300
C 	C 	0.11070 0.38930 0.11070 0.38800
C 	C 	0.05420 0.44580 0.05420 -0.10600
C 	C 	0.38930 0.11070 0.38930 0.38800
C 	C 	0.44580 0.05420 0.44580 -0.10600
C 	C 	0.11070 0.11070 0.38930 0.38800
C 	C 	0.05420 0.05420 0.44580 -0.10600
C 	C 	0.38930 0.38930 0.11070 0.38800
C 	C 	0.44580 0.44580 0.05420 -0.10600
C 	C 	0.11070 0.38930 0.38930 0.38800
C 	C 	0.05420 0.44580 0.44580 -0.10600
C 	C 	0.38930 0.11070 0.11070 0.38800
C 	C 	0.44580 0.05420 0.05420 -0.10600
C 	C 	0.61070 0.88930 0.88930 0.38800
C 	C 	0.55420 0.94580 0.94580 -0.10600
C 	C 	0.88930 0.61070 0.61070 0.38800
C 	C 	0.94580 0.55420 0.55420 -0.10600
C 	C 	0.88930 0.88930 0.61070 0.38800
C 	C 	0.94580 0.94580 0.55420 -0.10600
C 	C 	0.61070 0.61070 0.88930 0.38800
C 	C 	0.55420 0.55420 0.94580 -0.10600
C 	C 	0.61070 0.88930 0.61070 0.38800
C 	C 	0.55420 0.94580 0.55420 -0.10600
C 	C 	0.88930 0.61070 0.88930 0.38800
C 	C 	0.94580 0.55420 0.94580 -0.10600
O 	O 	0.25000 0.25000 0.25000 -0.96000
O 	O 	0.75000 0.75000 0.75000 -0.96000
O 	O 	0.13430 0.42670 0.13430 -0.50600
O 	O 	0.42670 0.13430 0.30470 -0.50600
O 	O 	0.13430 0.30470 0.13430 -0.50600
O 	O 	0.30470 0.13430 0.42670 -0.50600
O 	O 	0.13430 0.13430 0.30470 -0.50600
O 	O 	0.42670 0.30470 0.13430 -0.50600
O 	O 	0.13430 0.13430 0.42670 -0.50600
O 	O 	0.30470 0.42670 0.13430 -0.50600
O 	O 	0.13430 0.30470 0.42670 -0.50600
O 	O 	0.42670 0.13430 0.13430 -0.50600
O 	O 	0.13430 0.42670 0.30470 -0.50600
O 	O 	0.30470 0.13430 0.13430 -0.50600
O 	O 	0.57330 0.86570 0.86570 -0.50600
O 	O 	0.86570 0.57330 0.69530 -0.50600
O 	O 	0.69530 0.86570 0.86570 -0.50600
O 	O 	0.86570 0.69530 0.57330 -0.50600
O 	O 	0.86570 0.86570 0.69530 -0.50600
O 	O 	0.69530 0.57330 0.86570 -0.50600
O 	O 	0.86570 0.86570 0.57330 -0.50600
O 	O 	0.57330 0.69530 0.86570 -0.50600
O 	O 	0.69530 0.86570 0.57330 -0.50600
O 	O 	0.86570 0.57330 0.86570 -0.50600
O 	O 	0.57330 0.86570 0.69530 -0.50600
O 	O 	0.86570 0.69530 0.86570 -0.50600
