data_crystal

_cell_length_a 13.38500
_cell_length_b 14.71200
_cell_length_c 15.57300
_cell_angle_alpha 90.00000
_cell_angle_beta  90.00000
_cell_angle_gamma 90.00000

_symmetry_space_group_name_	'P 1'
_symmetry_space_group_name_H-M	'P 1'

loop_
_symmetry_equiv_pos_as_xyz
  x,y,z

loop_
_atom_site_label
_atom_site_type_symbol
_atom_site_fract_x
_atom_site_fract_y
_atom_site_fract_z
_atom_site_charge
Zn	Zn	0.21248 0.70270 0.79077 1.18900
Zn	Zn	0.04996 0.55194 0.90672 1.15200
Zn	Zn	0.28752 0.29730 0.29077 1.18900
Zn	Zn	0.45004 0.44806 0.40672 1.15200
Zn	Zn	0.78752 0.20270 0.70923 1.18800
Zn	Zn	0.95004 0.05194 0.59328 1.15100
Zn	Zn	0.71248 0.79730 0.20923 1.18800
Zn	Zn	0.54996 0.94806 0.09328 1.15100
H 	H 	0.90340 0.77600 0.99180 -0.02300
H 	H 	0.75670 0.00430 0.92340 -0.02900
H 	H 	0.98180 0.90890 0.77450 -0.03900
H 	H 	0.59660 0.22400 0.49180 -0.02300
H 	H 	0.74330 0.99570 0.42340 -0.02800
H 	H 	0.51820 0.09110 0.27450 -0.04000
H 	H 	0.09660 0.27600 0.50820 -0.02300
H 	H 	0.24330 0.50430 0.57660 -0.02800
H 	H 	0.01820 0.40890 0.72550 -0.04000
H 	H 	0.40340 0.72400 0.00820 -0.02300
H 	H 	0.25670 0.49570 0.07660 -0.02700
H 	H 	0.48180 0.59110 0.22550 -0.04000
C 	C 	0.95610 0.83120 0.88010 -0.23300
C 	C 	0.89520 0.82560 0.95340 0.13900
C 	C 	0.82450 0.88990 0.97060 -0.23400
C 	C 	0.80830 0.96130 0.91300 0.13200
C 	C 	0.86850 0.96910 0.83990 -0.22900
C 	C 	0.94130 0.90380 0.82440 0.13700
C 	C 	0.03310 0.76080 0.86320 0.43000
C 	C 	0.76120 0.88570 0.04950 0.43400
C 	C 	0.85630 0.04660 0.77920 0.41000
C 	C 	0.54390 0.16880 0.38010 -0.23500
C 	C 	0.60480 0.17440 0.45340 0.14000
C 	C 	0.67550 0.11010 0.47060 -0.23500
C 	C 	0.69170 0.03870 0.41300 0.13100
C 	C 	0.63150 0.03090 0.33990 -0.23000
C 	C 	0.55870 0.09620 0.32440 0.13800
C 	C 	0.46690 0.23920 0.36320 0.43200
C 	C 	0.73880 0.11430 0.54950 0.43600
C 	C 	0.64370 0.95340 0.27920 0.41000
C 	C 	0.04390 0.33120 0.61990 -0.23400
C 	C 	0.10480 0.32560 0.54660 0.14000
C 	C 	0.17550 0.38990 0.52940 -0.23500
C 	C 	0.19170 0.46130 0.58700 0.13100
C 	C 	0.13150 0.46910 0.66010 -0.23000
C 	C 	0.05870 0.40380 0.67560 0.13800
C 	C 	0.96690 0.26080 0.63680 0.43100
C 	C 	0.23880 0.38570 0.45050 0.43600
C 	C 	0.14370 0.54660 0.72080 0.41100
C 	C 	0.45610 0.66880 0.11990 -0.23500
C 	C 	0.39520 0.67440 0.04660 0.14000
C 	C 	0.32450 0.61010 0.02940 -0.23400
C 	C 	0.30830 0.53870 0.08700 0.13100
C 	C 	0.36850 0.53090 0.16010 -0.23000
C 	C 	0.44130 0.59620 0.17560 0.13800
C 	C 	0.53310 0.73920 0.13680 0.43200
C 	C 	0.26120 0.61430 0.95050 0.43500
C 	C 	0.35630 0.45340 0.22080 0.41100
O 	O 	0.09320 0.77590 0.80260 -0.55000
O 	O 	0.03430 0.69270 0.91290 -0.53200
O 	O 	0.77670 0.81580 0.09770 -0.53000
O 	O 	0.69940 0.94580 0.06470 -0.54700
O 	O 	0.78080 0.09760 0.78440 -0.53800
O 	O 	0.92610 0.05930 0.72500 -0.54000
O 	O 	0.40680 0.22410 0.30260 -0.54900
O 	O 	0.46570 0.30730 0.41290 -0.53200
O 	O 	0.72330 0.18420 0.59770 -0.53000
O 	O 	0.80060 0.05420 0.56470 -0.54700
O 	O 	0.71920 0.90240 0.28440 -0.53800
O 	O 	0.57390 0.94070 0.22500 -0.54000
O 	O 	0.90680 0.27590 0.69740 -0.54900
O 	O 	0.96570 0.19270 0.58710 -0.53200
O 	O 	0.22330 0.31580 0.40230 -0.53000
O 	O 	0.30060 0.44580 0.43530 -0.54700
O 	O 	0.21920 0.59760 0.71560 -0.53800
O 	O 	0.07390 0.55930 0.77500 -0.54000
O 	O 	0.59320 0.72410 0.19740 -0.55000
O 	O 	0.53430 0.80730 0.08710 -0.53200
O 	O 	0.27670 0.68420 0.90230 -0.53000
O 	O 	0.19940 0.55420 0.93530 -0.54700
O 	O 	0.28080 0.40240 0.21560 -0.53800
O 	O 	0.42610 0.44070 0.27500 -0.54000
