data_crystal

_cell_length_a 6.67160
_cell_length_b 7.64440
_cell_length_c 10.54680
_cell_angle_alpha 111.24800
_cell_angle_beta  102.92200
_cell_angle_gamma 90.00000

_symmetry_space_group_name_	'P 1'
_symmetry_space_group_name_H-M	'P 1'

loop_
_symmetry_equiv_pos_as_xyz
  x,y,z

loop_
_atom_site_label
_atom_site_type_symbol
_atom_site_fract_x
_atom_site_fract_y
_atom_site_fract_z
_atom_site_charge
Ga	Ga	0.42600 0.11220 0.22400 2.03700
Ga	Ga	0.92600 0.11180 0.22400 2.04200
H 	H 	0.20430 0.22470 0.89460 0.00900
H 	H 	0.61890 0.99530 0.54860 0.41000
H 	H 	0.05350 0.16550 0.64700 0.09700
H 	H 	0.77070 0.05440 0.79620 -0.11500
H 	H 	0.16100 0.32600 0.18720 0.30000
H 	H 	0.70430 0.66990 0.89460 0.05200
H 	H 	0.11890 0.55330 0.54860 0.06600
H 	H 	0.55350 0.48150 0.64700 0.05500
H 	H 	0.27070 0.74180 0.79620 0.07200
H 	H 	0.66100 0.86120 0.18720 0.24800
C 	C 	0.58930 0.17570 0.00780 0.46200
C 	C 	0.49810 0.14490 0.85940 -0.29300
C 	C 	0.61710 0.07850 0.76360 0.26400
C 	C 	0.29360 0.17680 0.82060 0.13000
C 	C 	0.53010 0.04300 0.62280 -0.63300
C 	C 	0.20720 0.14170 0.67960 -0.21600
C 	C 	0.32610 0.07510 0.58400 0.20500
C 	C 	0.22900 0.04560 0.43660 -0.01900
C 	C 	0.08930 0.83210 0.00780 0.61400
C 	C 	0.99810 0.71450 0.85940 -0.24400
C 	C 	0.11710 0.68510 0.76360 0.12700
C 	C 	0.79360 0.64380 0.82060 0.07700
C 	C 	0.03010 0.57980 0.62280 0.08900
C 	C 	0.70720 0.53790 0.67960 0.01200
C 	C 	0.82610 0.50890 0.58400 -0.18300
C 	C 	0.72900 0.39100 0.43660 0.46000
O 	O 	0.47210 0.23500 0.09160 -0.62000
O 	O 	0.77320 0.13860 0.04660 -0.69700
O 	O 	0.34230 0.99610 0.35040 -0.21700
O 	O 	0.04100 0.07350 0.40360 -0.51600
O 	O 	0.17260 0.21470 0.21320 -1.02600
O 	O 	0.97210 0.85660 0.09160 -0.54600
O 	O 	0.27320 0.90800 0.04660 -0.47700
O 	O 	0.84230 0.35430 0.35040 -0.64400
O 	O 	0.54100 0.33010 0.40360 -0.61600
O 	O 	0.67260 0.99850 0.21320 -0.76600
