data_crystal

_cell_length_a 11.49900
_cell_length_b 11.49900
_cell_length_c 15.79500
_cell_angle_alpha 90.00000
_cell_angle_beta  90.00000
_cell_angle_gamma 90.00000

_symmetry_space_group_name_	'P 1'
_symmetry_space_group_name_H-M	'P 1'

loop_
_symmetry_equiv_pos_as_xyz
  x,y,z

loop_
_atom_site_label
_atom_site_type_symbol
_atom_site_fract_x
_atom_site_fract_y
_atom_site_fract_z
_atom_site_charge
Na	Na	0.60830 0.39170 0.25000 0.56400
Na	Na	0.10830 0.10830 0.50000 0.56500
Na	Na	0.39170 0.60830 0.75000 0.56500
Na	Na	0.89170 0.89170 -0.00000 0.56600
Si	Si	0.47990 0.64160 0.32320 2.38600
Si	Si	0.85840 0.97990 0.57320 2.38000
Si	Si	0.52010 0.35840 0.82320 2.36100
Si	Si	0.14160 0.02010 0.07320 2.37300
Si	Si	0.64160 0.47990 0.67680 2.38600
Si	Si	0.97990 0.85840 0.42680 2.38100
Si	Si	0.35840 0.52010 0.17680 2.40900
Si	Si	0.02010 0.14160 0.92680 2.34700
H 	H 	0.37910 0.69840 0.45430 0.62700
H 	H 	0.80160 0.87910 0.70430 0.62600
H 	H 	0.62090 0.30160 0.95430 0.61300
H 	H 	0.19840 0.12090 0.20430 0.62300
H 	H 	0.69840 0.37910 0.54570 0.62700
H 	H 	0.87910 0.80160 0.29570 0.62500
H 	H 	0.30160 0.62090 0.04570 0.63800
H 	H 	0.12090 0.19840 0.79570 0.61900
H 	H 	0.37760 0.57060 0.44540 0.62300
H 	H 	0.92940 0.87760 0.69540 0.62100
H 	H 	0.62240 0.42940 0.94540 0.61100
H 	H 	0.07060 0.12240 0.19540 0.62000
H 	H 	0.57060 0.37760 0.55460 0.62400
H 	H 	0.87760 0.92940 0.30460 0.62100
H 	H 	0.42940 0.62240 0.05460 0.63400
H 	H 	0.12240 0.07060 0.80460 0.61200
H 	H 	0.29040 0.64220 0.40070 0.61300
H 	H 	0.85780 0.79040 0.65070 0.61200
H 	H 	0.70960 0.35780 0.90070 0.60300
H 	H 	0.14220 0.20960 0.15070 0.61100
H 	H 	0.64220 0.29040 0.59930 0.61400
H 	H 	0.79040 0.85780 0.34930 0.61200
H 	H 	0.35780 0.70960 0.09930 0.62200
H 	H 	0.20960 0.14220 0.84930 0.60300
H 	H 	0.50180 0.84870 0.32260 0.61000
H 	H 	0.65130 0.00180 0.57260 0.60600
H 	H 	0.49820 0.15130 0.82260 0.60100
H 	H 	0.34870 0.99820 0.07260 0.59800
H 	H 	0.84870 0.50180 0.67740 0.60900
H 	H 	0.00180 0.65130 0.42740 0.61600
H 	H 	0.15130 0.49820 0.17740 0.61600
H 	H 	0.99820 0.34870 0.92740 0.61700
H 	H 	0.52630 0.81100 0.23500 0.60800
H 	H 	0.68900 0.02630 0.48500 0.60500
H 	H 	0.47370 0.18900 0.73500 0.60100
H 	H 	0.31100 0.97370 0.98500 0.59200
H 	H 	0.81100 0.52630 0.76500 0.60700
H 	H 	0.02630 0.68900 0.51500 0.61500
H 	H 	0.18900 0.47370 0.26500 0.61300
H 	H 	0.97370 0.31100 0.01500 0.62600
H 	H 	0.40570 0.83080 0.26220 0.57700
H 	H 	0.66920 0.90570 0.51220 0.57400
H 	H 	0.59430 0.16920 0.76220 0.56900
H 	H 	0.33080 0.09430 0.01220 0.57000
H 	H 	0.83080 0.40570 0.73780 0.57700
H 	H 	0.90570 0.66920 0.48780 0.58100
H 	H 	0.16920 0.59430 0.23780 0.58200
H 	H 	0.09430 0.33080 0.98780 0.57900
H 	H 	0.63220 0.55160 0.40560 0.60600
H 	H 	0.94840 0.13220 0.65560 0.60600
H 	H 	0.36780 0.44840 0.90560 0.59600
H 	H 	0.05160 0.86780 0.15560 0.60500
H 	H 	0.55160 0.63220 0.59440 0.60600
H 	H 	0.13220 0.94840 0.34440 0.60600
H 	H 	0.44840 0.36780 0.09440 0.61600
H 	H 	0.86780 0.05160 0.84440 0.59600
H 	H 	0.69360 0.62390 0.34220 0.64800
H 	H 	0.87610 0.19360 0.59220 0.64700
H 	H 	0.30640 0.37610 0.84220 0.64000
H 	H 	0.12390 0.80640 0.09220 0.64700
H 	H 	0.62390 0.69360 0.65780 0.64800
H 	H 	0.19360 0.87610 0.40780 0.64700
H 	H 	0.37610 0.30640 0.15780 0.65600
H 	H 	0.80640 0.12390 0.90780 0.63500
H 	H 	0.64320 0.67800 0.41850 0.58000
H 	H 	0.82200 0.14320 0.66850 0.58000
H 	H 	0.35680 0.32200 0.91850 0.56900
H 	H 	0.17800 0.85680 0.16850 0.57800
H 	H 	0.67800 0.64320 0.58150 0.58000
H 	H 	0.14320 0.82200 0.33150 0.57900
H 	H 	0.32200 0.35680 0.08150 0.59100
H 	H 	0.85680 0.17800 0.83150 0.57200
H 	H 	0.86610 0.49890 0.33230 -0.05200
H 	H 	0.00110 0.36610 0.58230 -0.05100
H 	H 	0.13390 0.50110 0.83230 -0.05100
H 	H 	0.99890 0.63390 0.08230 -0.05000
H 	H 	0.49890 0.86610 0.66770 -0.04900
H 	H 	0.36610 0.00110 0.41770 -0.05200
H 	H 	0.50110 0.13390 0.16770 -0.05000
H 	H 	0.63390 0.99890 0.91770 -0.05100
H 	H 	0.83210 0.44330 0.43220 -0.07300
H 	H 	0.05670 0.33210 0.68220 -0.07300
H 	H 	0.16790 0.55670 0.93220 -0.07600
H 	H 	0.94330 0.66790 0.18220 -0.07400
H 	H 	0.44330 0.83210 0.56780 -0.07200
H 	H 	0.33210 0.05670 0.31780 -0.07300
H 	H 	0.55670 0.16790 0.06780 -0.06800
H 	H 	0.66790 0.94330 0.81780 -0.07200
H 	H 	0.72380 0.18460 0.33080 -0.00400
H 	H 	0.31540 0.22380 0.58080 -0.00500
H 	H 	0.27620 0.81540 0.83080 -0.00400
H 	H 	0.68460 0.77620 0.08080 -0.00300
H 	H 	0.18460 0.72380 0.66920 -0.00400
H 	H 	0.22380 0.31540 0.41920 -0.00500
H 	H 	0.81540 0.27620 0.16920 -0.00400
H 	H 	0.77620 0.68460 0.91920 -0.00700
H 	H 	0.74980 0.24190 0.43170 -0.05100
H 	H 	0.25810 0.24980 0.68170 -0.05100
H 	H 	0.25020 0.75810 0.93170 -0.05400
H 	H 	0.74190 0.75020 0.18170 -0.05200
H 	H 	0.24190 0.74980 0.56830 -0.05100
H 	H 	0.24980 0.25810 0.31830 -0.05200
H 	H 	0.75810 0.25020 0.06830 -0.04700
H 	H 	0.75020 0.74190 0.81830 -0.05100
H 	H 	0.89170 0.10090 0.39930 -0.08600
H 	H 	0.39910 0.39170 0.64930 -0.08700
H 	H 	0.10830 0.89910 0.89930 -0.08600
H 	H 	0.60090 0.60830 0.14930 -0.08700
H 	H 	0.10090 0.89170 0.60070 -0.08500
H 	H 	0.39170 0.39910 0.35070 -0.08800
H 	H 	0.89910 0.10830 0.10070 -0.08400
H 	H 	0.60830 0.60090 0.85070 -0.08700
H 	H 	0.92950 0.17040 0.30470 -0.04700
H 	H 	0.32960 0.42950 0.55470 -0.04800
H 	H 	0.07050 0.82960 0.80470 -0.04600
H 	H 	0.67040 0.57050 0.05470 -0.04500
H 	H 	0.17040 0.92950 0.69530 -0.04500
H 	H 	0.42950 0.32960 0.44530 -0.04800
H 	H 	0.82960 0.07050 0.19530 -0.04700
H 	H 	0.57050 0.67040 0.94530 -0.05200
H 	H 	0.01840 0.35800 0.30940 -0.03800
H 	H 	0.14200 0.51840 0.55940 -0.03700
H 	H 	0.98160 0.64200 0.80940 -0.04000
H 	H 	0.85800 0.48160 0.05940 -0.03400
H 	H 	0.35800 0.01840 0.69060 -0.04400
H 	H 	0.51840 0.14200 0.44060 -0.03700
H 	H 	0.64200 0.98160 0.19060 -0.04100
H 	H 	0.48160 0.85800 0.94060 -0.03900
H 	H 	0.04400 0.42130 0.40820 -0.04300
H 	H 	0.07870 0.54400 0.65820 -0.04200
H 	H 	0.95600 0.57870 0.90820 -0.04700
H 	H 	0.92130 0.45600 0.15820 -0.04300
H 	H 	0.42130 0.04400 0.59180 -0.04800
H 	H 	0.54400 0.07870 0.34180 -0.04200
H 	H 	0.57870 0.95600 0.09180 -0.04500
H 	H 	0.45600 0.92130 0.84180 -0.04100
C 	C 	0.37140 0.63940 0.41220 -2.30100
C 	C 	0.86060 0.87140 0.66220 -2.29600
C 	C 	0.62860 0.36060 0.91220 -2.27200
C 	C 	0.13940 0.12860 0.16220 -2.28900
C 	C 	0.63940 0.37140 0.58780 -2.30200
C 	C 	0.87140 0.86060 0.33780 -2.29700
C 	C 	0.36060 0.62860 0.08780 -2.32700
C 	C 	0.12860 0.13940 0.83780 -2.27300
C 	C 	0.47570 0.79470 0.28130 -2.24800
C 	C 	0.70530 0.97570 0.53130 -2.23800
C 	C 	0.52430 0.20530 0.78130 -2.22500
C 	C 	0.29470 0.02430 0.03130 -2.20800
C 	C 	0.79470 0.47570 0.71870 -2.24700
C 	C 	0.97570 0.70530 0.46870 -2.26400
C 	C 	0.20530 0.52430 0.21870 -2.26500
C 	C 	0.02430 0.29470 0.96870 -2.27500
C 	C 	0.62520 0.62290 0.37530 -2.30300
C 	C 	0.87710 0.12520 0.62530 -2.30000
C 	C 	0.37480 0.37710 0.87530 -2.27800
C 	C 	0.12290 0.87480 0.12530 -2.29300
C 	C 	0.62290 0.62520 0.62470 -2.30400
C 	C 	0.12520 0.87710 0.37470 -2.29600
C 	C 	0.37710 0.37480 0.12470 -2.32800
C 	C 	0.87480 0.12290 0.87470 -2.27100
C 	C 	0.86560 0.42150 0.37070 0.02300
C 	C 	0.07850 0.36560 0.62070 0.02300
C 	C 	0.13440 0.57850 0.87070 0.02200
C 	C 	0.92150 0.63440 0.12070 0.02300
C 	C 	0.42150 0.86560 0.62930 0.01800
C 	C 	0.36560 0.07850 0.37930 0.02400
C 	C 	0.57850 0.13440 0.12930 0.02000
C 	C 	0.63440 0.92150 0.87930 0.02400
C 	C 	0.78200 0.23660 0.36810 0.01000
C 	C 	0.26340 0.28200 0.61810 0.01000
C 	C 	0.21800 0.76340 0.86810 0.01000
C 	C 	0.73660 0.71800 0.11810 0.01000
C 	C 	0.23660 0.78200 0.63190 0.01000
C 	C 	0.28200 0.26340 0.38190 0.01000
C 	C 	0.76340 0.21800 0.13190 0.00900
C 	C 	0.71800 0.73660 0.88190 0.01000
C 	C 	0.90070 0.18270 0.36870 0.04400
C 	C 	0.31730 0.40070 0.61870 0.04500
C 	C 	0.09930 0.81730 0.86870 0.04400
C 	C 	0.68270 0.59930 0.11870 0.04400
C 	C 	0.18270 0.90070 0.63130 0.04400
C 	C 	0.40070 0.31730 0.38130 0.04500
C 	C 	0.81730 0.09930 0.13130 0.04400
C 	C 	0.59930 0.68270 0.88130 0.04500
C 	C 	0.98550 0.36710 0.37280 0.03200
C 	C 	0.13290 0.48550 0.62280 0.03200
C 	C 	0.01450 0.63290 0.87280 0.03700
C 	C 	0.86710 0.51450 0.12280 0.03200
C 	C 	0.36710 0.98550 0.62720 0.04700
C 	C 	0.48550 0.13290 0.37720 0.03200
C 	C 	0.63290 0.01450 0.12720 0.04100
C 	C 	0.51450 0.86710 0.87720 0.03200
N 	N 	0.46200 0.53800 0.25000 -0.91400
N 	N 	0.96200 0.96200 0.50000 -0.91000
N 	N 	0.53800 0.46200 0.75000 -0.90700
N 	N 	0.03800 0.03800 -0.00000 -0.89600
O 	O 	0.78380 0.34880 0.32820 -0.27900
O 	O 	0.15120 0.28380 0.57820 -0.27900
O 	O 	0.21620 0.65120 0.82820 -0.27900
O 	O 	0.84880 0.71620 0.07820 -0.27700
O 	O 	0.34880 0.78380 0.67180 -0.27700
O 	O 	0.28380 0.15120 0.42180 -0.27900
O 	O 	0.65120 0.21620 0.17180 -0.27700
O 	O 	0.71620 0.84880 0.92180 -0.28100
O 	O 	0.98210 0.25570 0.41300 -0.28700
O 	O 	0.24430 0.48210 0.66300 -0.28800
O 	O 	0.01790 0.74430 0.91300 -0.29000
O 	O 	0.75570 0.51790 0.16300 -0.28700
O 	O 	0.25570 0.98210 0.58700 -0.28800
O 	O 	0.48210 0.24430 0.33700 -0.28800
O 	O 	0.74430 0.01790 0.08700 -0.28400
O 	O 	0.51790 0.75570 0.83700 -0.28800
