data_crystal

_cell_length_a 9.82740
_cell_length_b 11.31080
_cell_length_c 14.50720
_cell_angle_alpha 91.51770
_cell_angle_beta  90.00000
_cell_angle_gamma 90.00000

_symmetry_space_group_name_	'P 1'
_symmetry_space_group_name_H-M	'P 1'

loop_
_symmetry_equiv_pos_as_xyz
  x,y,z

loop_
_atom_site_label
_atom_site_type_symbol
_atom_site_fract_x
_atom_site_fract_y
_atom_site_fract_z
_atom_site_charge
Zn	Zn	0.91929 0.75787 0.13250 1.28200
Zn	Zn	0.10555 0.74140 0.31324 1.23600
Zn	Zn	0.41929 0.74213 0.36750 1.24600
Zn	Zn	0.60555 0.75860 0.18676 1.25200
Zn	Zn	0.08071 0.24213 0.86750 1.20700
Zn	Zn	0.89445 0.25860 0.68676 1.26300
Zn	Zn	0.58071 0.25787 0.63250 1.24300
Zn	Zn	0.39445 0.24140 0.81324 1.24800
Zn	Zn	-0.00000 0.50000 -0.00000 1.18200
Zn	Zn	0.50000 0.00000 0.50000 1.23300
Zn	Zn	-0.00000 0.00000 -0.00000 1.15700
Zn	Zn	0.50000 0.50000 0.50000 1.25500
H 	H 	0.75180 0.86280 0.36690 -0.07900
H 	H 	0.03590 0.47810 0.26580 -0.14200
H 	H 	0.61580 0.55720 0.04380 -0.13600
H 	H 	0.18460 0.98610 0.23400 -0.14600
H 	H 	0.15470 0.69610 0.92760 -0.15000
H 	H 	0.70110 0.99060 0.00880 -0.09600
H 	H 	0.25180 0.63720 0.13310 -0.13200
H 	H 	0.53590 0.02190 0.23420 -0.25700
H 	H 	0.11580 0.94280 0.45620 -0.11500
H 	H 	0.68460 0.51390 0.26600 -0.09600
H 	H 	0.65470 0.80390 0.57240 -0.07100
H 	H 	0.20110 0.50940 0.49120 -0.11500
H 	H 	0.24820 0.13720 0.63310 -0.12900
H 	H 	0.96410 0.52190 0.73420 -0.06200
H 	H 	0.38420 0.44280 0.95620 -0.06300
H 	H 	0.81540 0.01390 0.76600 -0.06900
H 	H 	0.84530 0.30390 0.07240 -0.02800
H 	H 	0.29890 0.00940 0.99120 -0.07900
H 	H 	0.74820 0.36280 0.86690 -0.07400
H 	H 	0.46410 0.97810 0.76580 0.05300
H 	H 	0.88420 0.05720 0.54380 -0.08400
H 	H 	0.31540 0.48610 0.73400 -0.12100
H 	H 	0.34530 0.19610 0.42760 -0.11700
H 	H 	0.79890 0.49060 0.50880 -0.06800
C 	C 	0.82390 0.83210 0.32990 0.47800
C 	C 	0.01480 0.51960 0.21160 0.53100
C 	C 	0.71010 0.57320 0.05100 0.52300
C 	C 	0.12500 0.95690 0.18710 0.63000
C 	C 	0.10190 0.74170 0.97040 0.67900
C 	C 	0.71880 0.92960 0.05100 0.47600
C 	C 	0.32390 0.66790 0.17010 0.49400
C 	C 	0.51480 0.98040 0.28840 0.79800
C 	C 	0.21010 0.92680 0.44900 0.50300
C 	C 	0.62500 0.54310 0.31290 0.48800
C 	C 	0.60190 0.75830 0.52960 0.48300
C 	C 	0.21880 0.57040 0.44900 0.49700
C 	C 	0.17610 0.16790 0.67010 0.49600
C 	C 	0.98520 0.48040 0.78840 0.47400
C 	C 	0.28990 0.42680 0.94900 0.48000
C 	C 	0.87500 0.04310 0.81290 0.35200
C 	C 	0.89810 0.25830 0.02960 0.28800
C 	C 	0.28120 0.07040 0.94900 0.48500
C 	C 	0.67610 0.33210 0.82990 0.47900
C 	C 	0.48520 0.01960 0.71160 0.21100
C 	C 	0.78990 0.07320 0.55100 0.50600
C 	C 	0.37500 0.45690 0.68710 0.49700
C 	C 	0.39810 0.24170 0.47040 0.50200
C 	C 	0.78120 0.42960 0.55100 0.47400
O 	O 	0.79700 0.80940 0.24560 -0.53400
O 	O 	0.93620 0.81790 0.36890 -0.35900
O 	O 	0.00340 0.63090 0.21960 -0.63700
O 	O 	0.00080 0.45970 0.13920 -0.52900
O 	O 	0.74230 0.65260 0.11020 -0.56800
O 	O 	0.78910 0.51440 0.00160 -0.47000
O 	O 	0.08060 0.85150 0.19580 -0.64400
O 	O 	0.09860 0.02510 0.12410 -0.61200
O 	O 	0.02250 0.68450 0.02340 -0.75600
O 	O 	0.11660 0.84990 0.96950 -0.44200
O 	O 	0.84320 0.89780 0.05980 -0.53600
O 	O 	0.61940 0.88860 0.09180 -0.44400
O 	O 	0.29700 0.69060 0.25440 -0.57500
O 	O 	0.43620 0.68210 0.13110 -0.46900
O 	O 	0.50340 0.86910 0.28040 -0.64700
O 	O 	0.50080 0.04030 0.36080 -0.57700
O 	O 	0.24230 0.84740 0.38980 -0.58200
O 	O 	0.28910 0.98560 0.49840 -0.40400
O 	O 	0.58060 0.64850 0.30420 -0.56300
O 	O 	0.59860 0.47490 0.37590 -0.44200
O 	O 	0.52250 0.81550 0.47660 -0.55900
O 	O 	0.61660 0.65010 0.53050 -0.43500
O 	O 	0.34320 0.60220 0.44020 -0.58200
O 	O 	0.11940 0.61140 0.40820 -0.48400
O 	O 	0.20300 0.19060 0.75440 -0.61000
O 	O 	0.06380 0.18210 0.63110 -0.53100
O 	O 	0.99660 0.36910 0.78040 -0.51900
O 	O 	0.99920 0.54030 0.86080 -0.33000
O 	O 	0.25770 0.34740 0.88980 -0.58500
O 	O 	0.21090 0.48560 0.99840 -0.38500
O 	O 	0.91940 0.14850 0.80420 -0.48800
O 	O 	0.90140 0.97490 0.87590 -0.25200
O 	O 	0.97750 0.31550 0.97660 -0.36800
O 	O 	0.88340 0.15010 0.03050 -0.41500
O 	O 	0.15680 0.10220 0.94020 -0.58500
O 	O 	0.38060 0.11140 0.90820 -0.44700
O 	O 	0.70300 0.30940 0.74560 -0.56700
O 	O 	0.56380 0.31790 0.86890 -0.41900
O 	O 	0.49660 0.13090 0.71960 -0.51300
O 	O 	0.49920 0.95970 0.63920 -0.29800
O 	O 	0.75770 0.15260 0.61020 -0.57300
O 	O 	0.71090 0.01440 0.50160 -0.46600
O 	O 	0.41940 0.35150 0.69580 -0.57600
O 	O 	0.40140 0.52510 0.62410 -0.45100
O 	O 	0.47750 0.18450 0.52340 -0.58800
O 	O 	0.38340 0.34990 0.46950 -0.46100
O 	O 	0.65680 0.39780 0.55980 -0.56700
O 	O 	0.88060 0.38860 0.59180 -0.40800
