data_crystal

_cell_length_a 9.97810
_cell_length_b 11.36470
_cell_length_c 15.05480
_cell_angle_alpha 90.99620
_cell_angle_beta  90.00000
_cell_angle_gamma 90.00000

_symmetry_space_group_name_	'P 1'
_symmetry_space_group_name_H-M	'P 1'

loop_
_symmetry_equiv_pos_as_xyz
  x,y,z

loop_
_atom_site_label
_atom_site_type_symbol
_atom_site_fract_x
_atom_site_fract_y
_atom_site_fract_z
_atom_site_charge
Zn	Zn	0.93024 0.75458 0.13241 1.28400
Zn	Zn	0.12463 0.74191 0.30279 1.23800
Zn	Zn	0.43024 0.74542 0.36759 1.24600
Zn	Zn	0.62463 0.75809 0.19721 1.25300
Zn	Zn	0.06976 0.24542 0.86759 1.20500
Zn	Zn	0.87537 0.25809 0.69721 1.26500
Zn	Zn	0.56976 0.25458 0.63241 1.24200
Zn	Zn	0.37537 0.24191 0.80279 1.24800
Zn	Zn	-0.00000 0.50000 -0.00000 1.18200
Zn	Zn	0.50000 0.00000 0.50000 1.23600
Zn	Zn	-0.00000 0.00000 -0.00000 1.16400
Zn	Zn	0.50000 0.50000 0.50000 1.25700
H 	H 	0.77860 0.85400 0.36640 -0.08600
H 	H 	0.06450 0.47820 0.25460 -0.13700
H 	H 	0.63010 0.53780 0.07460 -0.12400
H 	H 	0.22900 0.96370 0.20630 -0.15500
H 	H 	0.13200 0.69540 0.91850 -0.16000
H 	H 	0.71350 0.00200 0.03230 -0.19800
H 	H 	0.27860 0.64600 0.13360 -0.13400
H 	H 	0.56450 0.02180 0.24540 -0.22500
H 	H 	0.13010 0.96220 0.42540 -0.11300
H 	H 	0.72900 0.53630 0.29370 -0.09900
H 	H 	0.63200 0.80460 0.58150 -0.07900
H 	H 	0.21350 0.49800 0.46770 -0.11000
H 	H 	0.22140 0.14600 0.63360 -0.13400
H 	H 	0.93550 0.52180 0.74540 -0.06300
H 	H 	0.36990 0.46220 0.92540 -0.06800
H 	H 	0.77100 0.03630 0.79370 -0.07900
H 	H 	0.86800 0.30460 0.08150 -0.02700
H 	H 	0.28650 0.99800 0.96770 0.03600
H 	H 	0.72140 0.35400 0.86640 -0.08400
H 	H 	0.43550 0.97820 0.75460 0.02700
H 	H 	0.86990 0.03780 0.57460 -0.07900
H 	H 	0.27100 0.46370 0.70630 -0.13600
H 	H 	0.36800 0.19540 0.41850 -0.11900
H 	H 	0.78650 0.50200 0.53230 -0.06800
C 	C 	0.84750 0.82610 0.32800 0.48800
C 	C 	0.03920 0.52030 0.20320 0.53100
C 	C 	0.72080 0.56270 0.07130 0.51000
C 	C 	0.15630 0.94160 0.16880 0.63500
C 	C 	0.08530 0.74150 0.96160 0.68400
C 	C 	0.73230 0.93570 0.06780 0.59300
C 	C 	0.34750 0.67390 0.17200 0.50500
C 	C 	0.53920 0.97970 0.29680 0.74600
C 	C 	0.22080 0.93730 0.42870 0.49400
C 	C 	0.65630 0.55840 0.33120 0.50500
C 	C 	0.58530 0.75850 0.53840 0.49000
C 	C 	0.23230 0.56430 0.43220 0.48900
C 	C 	0.15250 0.17390 0.67200 0.50900
C 	C 	0.96080 0.47970 0.79680 0.47400
C 	C 	0.27920 0.43730 0.92870 0.47400
C 	C 	0.84370 0.05840 0.83120 0.38600
C 	C 	0.91470 0.25850 0.03840 0.29400
C 	C 	0.26770 0.06430 0.93220 0.34400
C 	C 	0.65250 0.32610 0.82800 0.49100
C 	C 	0.46080 0.02030 0.70320 0.25800
C 	C 	0.77920 0.06270 0.57130 0.49600
C 	C 	0.34370 0.44160 0.66880 0.52000
C 	C 	0.41470 0.24150 0.46160 0.50500
C 	C 	0.76770 0.43570 0.56780 0.46900
O 	O 	0.81534 0.80607 0.24777 -0.53500
O 	O 	0.96048 0.81277 0.36147 -0.36600
O 	O 	0.02126 0.63096 0.21346 -0.63400
O 	O 	0.02720 0.46264 0.13384 -0.53300
O 	O 	0.75429 0.65066 0.12076 -0.56000
O 	O 	0.79442 0.50695 0.01965 -0.46300
O 	O 	0.09456 0.84774 0.18834 -0.64900
O 	O 	0.13200 0.00724 0.10644 -0.60600
O 	O 	0.01943 0.68536 0.02046 -0.75300
O 	O 	0.09415 0.84932 0.95522 -0.46400
O 	O 	0.85441 0.90058 0.06968 -0.56100
O 	O 	0.63628 0.89192 0.10792 -0.47100
O 	O 	0.31534 0.69393 0.25223 -0.57500
O 	O 	0.46048 0.68723 0.13853 -0.47200
O 	O 	0.52126 0.86904 0.28654 -0.63000
O 	O 	0.52720 0.03736 0.36616 -0.56100
O 	O 	0.25429 0.84934 0.37924 -0.57800
O 	O 	0.29442 0.99305 0.48035 -0.41500
O 	O 	0.59456 0.65226 0.31166 -0.57100
O 	O 	0.63200 0.49276 0.39356 -0.44000
O 	O 	0.51943 0.81464 0.47954 -0.56100
O 	O 	0.59415 0.65068 0.54478 -0.44300
O 	O 	0.35441 0.59942 0.43032 -0.57700
O 	O 	0.13628 0.60808 0.39208 -0.47800
O 	O 	0.18466 0.19393 0.75223 -0.60800
O 	O 	0.03952 0.18723 0.63853 -0.54000
O 	O 	0.97874 0.36904 0.78654 -0.51500
O 	O 	0.97280 0.53736 0.86616 -0.34100
O 	O 	0.24571 0.34934 0.87924 -0.57900
O 	O 	0.20558 0.49305 0.98035 -0.39400
O 	O 	0.90544 0.15226 0.81166 -0.49800
O 	O 	0.86800 0.99276 0.89356 -0.26500
O 	O 	0.98057 0.31464 0.97954 -0.37000
O 	O 	0.90585 0.15068 0.04478 -0.40300
O 	O 	0.14559 0.09942 0.93032 -0.54900
O 	O 	0.36372 0.10808 0.89208 -0.40800
O 	O 	0.68466 0.30607 0.74777 -0.56700
O 	O 	0.53952 0.31277 0.86147 -0.43000
O 	O 	0.47874 0.13096 0.71346 -0.52300
O 	O 	0.47280 0.96264 0.63384 -0.32800
O 	O 	0.74571 0.15066 0.62076 -0.56400
O 	O 	0.70558 0.00695 0.51965 -0.46000
O 	O 	0.40544 0.34774 0.68834 -0.58400
O 	O 	0.36800 0.50724 0.60644 -0.45800
O 	O 	0.48057 0.18536 0.52046 -0.58600
O 	O 	0.40585 0.34932 0.45522 -0.46400
O 	O 	0.64559 0.40058 0.56968 -0.56200
O 	O 	0.86372 0.39192 0.60792 -0.40400
