data_crystal

_cell_length_a 8.71500
_cell_length_b 12.93400
_cell_length_c 14.06050
_cell_angle_alpha 62.61670
_cell_angle_beta  83.68600
_cell_angle_gamma 76.16590

_symmetry_space_group_name_	'P 1'
_symmetry_space_group_name_H-M	'P 1'

loop_
_symmetry_equiv_pos_as_xyz
  x,y,z

loop_
_atom_site_label
_atom_site_type_symbol
_atom_site_fract_x
_atom_site_fract_y
_atom_site_fract_z
_atom_site_charge
Zn	Zn	0.36757 0.74115 0.82246 1.21500
Zn	Zn	0.86757 0.56361 0.17754 1.21100
H 	H 	0.09300 0.09630 0.46840 -0.00900
H 	H 	0.85010 0.20040 0.39220 0.12600
H 	H 	0.64380 0.02040 0.66480 0.09800
H 	H 	0.87850 0.91990 0.74320 0.01000
H 	H 	0.47570 0.16230 0.51580 0.07400
H 	H 	0.62280 0.31640 0.34400 0.07500
H 	H 	0.24830 0.26140 0.45900 0.10100
H 	H 	0.00150 0.37330 0.38280 0.00400
H 	H 	0.20870 0.56600 0.12580 -0.01900
H 	H 	0.45240 0.47370 0.19580 0.11200
H 	H 	0.23980 0.43540 0.77860 0.01200
H 	H 	0.14970 0.26130 0.84040 0.09700
H 	H 	0.14500 0.22040 0.13880 0.10400
H 	H 	0.24570 0.39200 0.07740 0.01000
H 	H 	0.05100 0.08200 0.10620 0.07900
H 	H 	0.08260 0.09440 0.90500 0.05900
H 	H 	0.05710 0.92550 0.88900 0.08900
H 	H 	0.96750 0.74890 0.95440 -0.00200
H 	H 	0.85830 0.75910 0.22920 -0.02500
H 	H 	0.93550 0.93050 0.16820 0.09100
H 	H 	0.59300 0.56470 0.53160 -0.00000
H 	H 	0.35010 0.59260 0.60780 0.11700
H 	H 	0.14380 0.68520 0.33520 0.11100
H 	H 	0.37850 0.66310 0.25680 0.00100
H 	H 	0.97570 0.67810 0.48420 0.04000
H 	H 	0.12280 0.66040 0.65600 0.07400
H 	H 	0.74830 0.72040 0.54100 0.09100
H 	H 	0.50150 0.75610 0.61720 -0.00300
H 	H 	0.70870 0.69180 0.87420 -0.02000
H 	H 	0.95240 0.66950 0.80420 0.09800
H 	H 	0.73980 0.21400 0.22140 0.00900
H 	H 	0.64970 0.10170 0.15960 0.09600
H 	H 	0.64500 0.35920 0.86120 0.09700
H 	H 	0.74570 0.46940 0.92260 0.00500
H 	H 	0.55100 0.18820 0.89380 0.07400
H 	H 	0.58260 0.99940 0.09500 0.03900
H 	H 	0.55710 0.81450 0.11100 0.09000
H 	H 	0.46750 0.70330 0.04560 -0.00300
H 	H 	0.35830 0.98830 0.77080 -0.00900
H 	H 	0.43550 0.09870 0.83180 0.07400
C 	C 	0.16500 0.92050 0.66320 0.37300
C 	C 	0.01680 0.99310 0.61480 -0.16900
C 	C 	0.00240 0.08020 0.50920 0.16700
C 	C 	0.85640 0.14330 0.46360 -0.24900
C 	C 	0.71980 0.12330 0.52180 0.16400
C 	C 	0.73490 0.03720 0.62480 -0.18800
C 	C 	0.87500 0.97560 0.67160 0.07800
C 	C 	0.56270 0.19020 0.47680 -0.10400
C 	C 	0.53590 0.28860 0.38380 -0.08900
C 	C 	0.37680 0.35630 0.33980 0.14400
C 	C 	0.24260 0.32660 0.39160 -0.17900
C 	C 	0.09300 0.39340 0.34480 0.09700
C 	C 	0.21570 0.50640 0.19620 0.13300
C 	C 	0.36360 0.45060 0.23580 -0.20100
C 	C 	0.30170 0.54210 0.87880 0.31500
C 	C 	0.24370 0.43220 0.92460 -0.14700
C 	C 	0.21980 0.39260 0.85100 0.08800
C 	C 	0.16570 0.28840 0.88860 -0.17800
C 	C 	0.13520 0.22380 0.99540 0.15300
C 	C 	0.16400 0.26310 0.06620 -0.18500
C 	C 	0.22220 0.36780 0.02880 0.10100
C 	C 	0.07800 0.11640 0.03420 -0.11100
C 	C 	0.05880 0.05970 0.97760 -0.06500
C 	C 	0.00470 0.95010 0.02060 0.13500
C 	C 	0.01640 0.89310 0.95800 -0.13700
C 	C 	0.96600 0.78410 0.99940 0.04900
C 	C 	0.90080 0.79060 0.16060 0.09900
C 	C 	0.94490 0.89400 0.12360 -0.21100
C 	C 	0.66500 0.58370 0.33680 0.37900
C 	C 	0.51680 0.60790 0.38520 -0.18900
C 	C 	0.50240 0.58940 0.49080 0.12300
C 	C 	0.35640 0.60690 0.53640 -0.20500
C 	C 	0.21980 0.64510 0.47820 0.15000
C 	C 	0.23490 0.66200 0.37520 -0.20900
C 	C 	0.37500 0.64720 0.32840 0.13100
C 	C 	0.06270 0.66700 0.52320 -0.06200
C 	C 	0.03590 0.67240 0.61620 -0.07200
C 	C 	0.87680 0.69610 0.66020 0.11100
C 	C 	0.74260 0.71820 0.60840 -0.16500
C 	C 	0.59300 0.73820 0.65520 0.08500
C 	C 	0.71570 0.70260 0.80380 0.12200
C 	C 	0.86360 0.68640 0.76420 -0.18600
C 	C 	0.80170 0.42090 0.12120 0.31400
C 	C 	0.74370 0.35680 0.07540 -0.15800
C 	C 	0.71980 0.24360 0.14900 0.08500
C 	C 	0.66570 0.17700 0.11140 -0.18200
C 	C 	0.63520 0.21920 0.00460 0.14500
C 	C 	0.66400 0.32930 0.93380 -0.18700
C 	C 	0.72220 0.39660 0.97120 0.10100
C 	C 	0.57800 0.15060 0.96580 -0.12100
C 	C 	0.55880 0.03730 0.02240 -0.04000
C 	C 	0.50470 0.97070 0.97940 0.08200
C 	C 	0.51640 0.85110 0.04200 -0.15300
C 	C 	0.46600 0.78350 0.00060 0.07500
C 	C 	0.40080 0.95120 0.83940 0.05800
C 	C 	0.44490 0.01760 0.87640 -0.12800
N 	N 	0.08140 0.48640 0.24520 -0.27600
N 	N 	0.91540 0.72880 0.10220 -0.27000
N 	N 	0.58140 0.73160 0.75480 -0.28000
N 	N 	0.41540 0.83100 0.89780 -0.26100
O 	O 	0.16310 0.84300 0.76020 -0.45600
O 	O 	0.28860 0.94220 0.61200 -0.32400
O 	O 	0.31650 0.59000 0.94280 -0.41200
O 	O 	0.33070 0.59920 0.78300 -0.38700
O 	O 	0.66310 0.60320 0.23980 -0.46700
O 	O 	0.78860 0.55420 0.38800 -0.33000
O 	O 	0.81650 0.53280 0.05720 -0.42100
O 	O 	0.83070 0.38220 0.21700 -0.39600
