data_crystal

_cell_length_a 8.40900
_cell_length_b 13.48800
_cell_length_c 14.13020
_cell_angle_alpha 61.49240
_cell_angle_beta  85.75740
_cell_angle_gamma 81.08290

_symmetry_space_group_name_	'P 1'
_symmetry_space_group_name_H-M	'P 1'

loop_
_symmetry_equiv_pos_as_xyz
  x,y,z

loop_
_atom_site_label
_atom_site_type_symbol
_atom_site_fract_x
_atom_site_fract_y
_atom_site_fract_z
_atom_site_charge
Zn	Zn	0.47811 0.61776 0.18240 1.20800
Zn	Zn	0.97811 0.80016 0.81760 1.17900
H 	H 	0.98360 0.46580 0.25860 0.04800
H 	H 	0.22230 0.35040 0.33360 0.04700
H 	H 	0.98290 0.14530 0.59700 0.08700
H 	H 	0.74200 0.25930 0.52100 0.02200
H 	H 	0.37730 0.19010 0.47200 0.05700
H 	H 	0.21560 0.04700 0.65160 0.08900
H 	H 	0.38400 0.91060 0.80440 0.09800
H 	H 	0.63070 0.80630 0.87740 -0.01600
H 	H 	0.84200 0.96800 0.59760 -0.02400
H 	H 	0.60330 0.07590 0.51840 0.08600
H 	H 	0.61810 0.96490 0.92260 0.03000
H 	H 	0.70070 0.14480 0.86020 0.06200
H 	H 	0.67210 0.10340 0.16280 0.06100
H 	H 	0.58770 0.92860 0.22420 0.03500
H 	H 	0.78520 0.28930 0.89000 0.04600
H 	H 	0.74780 0.26720 0.09420 0.05300
H 	H 	0.90430 0.43560 0.82980 0.06100
H 	H 	0.98330 0.61640 0.76640 -0.03200
H 	H 	0.85110 0.61670 0.04080 -0.01200
H 	H 	0.78320 0.43540 0.11120 0.08000
H 	H 	0.48360 0.72440 0.74140 0.03100
H 	H 	0.72230 0.68400 0.66640 0.06500
H 	H 	0.48290 0.74230 0.40300 0.08700
H 	H 	0.24200 0.78030 0.47900 0.04100
H 	H 	0.87730 0.66210 0.52800 0.03600
H 	H 	0.71560 0.69860 0.34840 0.07700
H 	H 	0.88400 0.71500 0.19560 0.11600
H 	H 	0.13070 0.68370 0.12260 -0.03300
H 	H 	0.34200 0.56560 0.40240 0.00700
H 	H 	0.10330 0.59430 0.48160 0.07900
H 	H 	0.11810 0.88750 0.07740 0.04100
H 	H 	0.20070 0.00500 0.13980 0.08400
H 	H 	0.17210 0.26620 0.83720 0.08100
H 	H 	0.08770 0.15280 0.77580 0.04700
H 	H 	0.28520 0.17930 0.11000 0.06000
H 	H 	0.24780 0.36140 0.90580 0.06800
H 	H 	0.40430 0.26540 0.17020 0.07900
H 	H 	0.48330 0.38280 0.23360 -0.01000
H 	H 	0.35110 0.65750 0.95920 -0.00600
H 	H 	0.28320 0.54660 0.88880 0.09800
C 	C 	0.68170 0.44680 0.33440 0.31500
C 	C 	0.83810 0.37450 0.38220 -0.08800
C 	C 	0.98290 0.40040 0.32740 -0.07400
C 	C 	0.12480 0.33170 0.37240 -0.01800
C 	C 	0.12980 0.23630 0.47240 0.13700
C 	C 	0.98320 0.21020 0.52800 -0.21700
C 	C 	0.84000 0.27820 0.48300 0.05200
C 	C 	0.28500 0.16610 0.51560 -0.06300
C 	C 	0.30830 0.07270 0.60940 -0.09700
C 	C 	0.46450 0.00520 0.65380 0.13200
C 	C 	0.47720 0.92400 0.76020 -0.17200
C 	C 	0.62500 0.86160 0.80340 0.09000
C 	C 	0.74710 0.95630 0.64020 0.08700
C 	C 	0.60570 0.02080 0.59260 -0.16000
C 	C 	0.53860 0.81330 0.12260 0.29200
C 	C 	0.59240 0.92960 0.07900 -0.08700
C 	C 	0.62820 0.99320 0.97160 0.01300
C 	C 	0.67970 0.10020 0.93460 -0.11200
C 	C 	0.70010 0.14080 0.00520 0.07000
C 	C 	0.66210 0.07540 0.11360 -0.10800
C 	C 	0.61100 0.97210 0.15000 0.01400
C 	C 	0.75740 0.25200 0.96420 -0.07600
C 	C 	0.77380 0.30480 0.01980 -0.08300
C 	C 	0.82880 0.41690 0.97740 0.08900
C 	C 	0.89240 0.47140 0.87420 -0.14800
C 	C 	0.93890 0.58010 0.83660 0.04900
C 	C 	0.86350 0.57990 0.99720 0.06100
C 	C 	0.81990 0.47220 0.03880 -0.14800
C 	C 	0.18170 0.78120 0.66560 0.32000
C 	C 	0.33810 0.75670 0.61780 -0.09900
C 	C 	0.48290 0.72780 0.67260 0.04200
C 	C 	0.62480 0.70410 0.62760 -0.12200
C 	C 	0.62980 0.70870 0.52760 0.08000
C 	C 	0.48320 0.73820 0.47200 -0.12400
C 	C 	0.34000 0.76120 0.51700 0.04100
C 	C 	0.78500 0.68170 0.48440 -0.06500
C 	C 	0.80830 0.68210 0.39060 -0.09700
C 	C 	0.96450 0.65900 0.34620 0.06600
C 	C 	0.97720 0.68420 0.23980 -0.26500
C 	C 	0.12500 0.66500 0.19660 0.20000
C 	C 	0.24710 0.59650 0.35980 0.07200
C 	C 	0.10570 0.61340 0.40740 -0.06200
C 	C 	0.03860 0.93590 0.87740 0.29400
C 	C 	0.09240 0.00860 0.92100 -0.07200
C 	C 	0.12820 0.96480 0.02840 0.03700
C 	C 	0.17970 0.03480 0.06540 -0.11500
C 	C 	0.20010 0.14600 0.99480 0.10000
C 	C 	0.16210 0.18900 0.88640 -0.11000
C 	C 	0.11100 0.12210 0.85000 0.03700
C 	C 	0.25740 0.21620 0.03580 -0.06700
C 	C 	0.27380 0.32460 0.98020 -0.07200
C 	C 	0.32880 0.39430 0.02260 0.11500
C 	C 	0.39240 0.34560 0.12580 -0.14200
C 	C 	0.43890 0.41670 0.16340 0.06700
C 	C 	0.36350 0.57710 0.00280 0.08900
C 	C 	0.31990 0.51100 0.96120 -0.15100
N 	N 	0.75930 0.87670 0.74460 -0.28100
N 	N 	0.92280 0.63450 0.89680 -0.27100
N 	N 	0.25930 0.62130 0.25540 -0.27600
N 	N 	0.42280 0.53130 0.10320 -0.25800
O 	O 	0.68920 0.52992 0.23816 -0.44800
O 	O 	0.55400 0.42336 0.38388 -0.31600
O 	O 	0.52500 0.77361 0.05818 -0.41900
O 	O 	0.51540 0.75850 0.22140 -0.37700
O 	O 	0.18920 0.76808 0.76184 -0.42300
O 	O 	0.05400 0.80724 0.61612 -0.27200
O 	O 	0.02500 0.83179 0.94182 -0.37800
O 	O 	0.01540 0.97990 0.77860 -0.34100
