data_crystal

_cell_length_a 8.40600
_cell_length_b 13.50700
_cell_length_c 14.13610
_cell_angle_alpha 61.46150
_cell_angle_beta  85.78920
_cell_angle_gamma 81.15910

_symmetry_space_group_name_	'P 1'
_symmetry_space_group_name_H-M	'P 1'

loop_
_symmetry_equiv_pos_as_xyz
  x,y,z

loop_
_atom_site_label
_atom_site_type_symbol
_atom_site_fract_x
_atom_site_fract_y
_atom_site_fract_z
_atom_site_charge
Zn	Zn	0.83362 0.92030 0.18274 1.19900
Zn	Zn	0.33362 0.10304 0.81726 1.21000
H 	H 	0.83990 0.02430 0.74060 0.03600
H 	H 	0.07900 0.98960 0.66580 0.05800
H 	H 	0.84120 0.04210 0.40740 0.10200
H 	H 	0.59990 0.08190 0.48060 0.03000
H 	H 	0.23080 0.96620 0.52720 0.05500
H 	H 	0.07400 0.99970 0.34920 0.08300
H 	H 	0.45740 0.89470 0.48220 0.10500
H 	H 	0.69710 0.86620 0.40220 -0.01700
H 	H 	0.48670 0.99030 0.12500 -0.03900
H 	H 	0.24020 0.01720 0.19600 0.15500
H 	H 	0.46580 0.19490 0.07520 0.02900
H 	H 	0.55190 0.30720 0.13860 0.08400
H 	H 	0.53270 0.56700 0.83720 0.07600
H 	H 	0.44670 0.45490 0.77620 0.02500
H 	H 	0.63640 0.48460 0.10760 0.05100
H 	H 	0.60630 0.66580 0.90600 0.06700
H 	H 	0.64050 0.84720 0.88920 0.09300
H 	H 	0.70530 0.95970 0.96160 -0.02000
H 	H 	0.84020 0.68690 0.23020 -0.02200
H 	H 	0.75810 0.57060 0.16980 0.09100
H 	H 	0.33990 0.76490 0.25940 0.02100
H 	H 	0.57900 0.65540 0.33420 0.08300
H 	H 	0.34120 0.44950 0.59260 0.10000
H 	H 	0.09990 0.56250 0.51940 0.02300
H 	H 	0.73080 0.49340 0.47280 0.05800
H 	H 	0.57400 0.34890 0.65080 0.08500
H 	H 	0.95740 0.37690 0.51780 0.10400
H 	H 	0.19710 0.26840 0.59780 -0.01200
H 	H 	0.98670 0.11530 0.87500 -0.01600
H 	H 	0.74020 0.21320 0.80400 0.11000
H 	H 	0.96580 0.27010 0.92480 0.03200
H 	H 	0.05190 0.44580 0.86140 0.07700
H 	H 	0.03270 0.40420 0.16280 0.07100
H 	H 	0.94670 0.23110 0.22380 0.03600
H 	H 	0.13640 0.59220 0.89240 0.05300
H 	H 	0.10630 0.57180 0.09400 0.06900
H 	H 	0.14050 0.73640 0.11080 0.10000
H 	H 	0.20530 0.92130 0.03840 -0.01800
H 	H 	0.34020 0.91710 0.76980 -0.02600
H 	H 	0.25810 0.74040 0.83020 0.09100
C 	C 	0.54050 0.08210 0.66600 0.32000
C 	C 	0.69430 0.05850 0.61860 -0.11100
C 	C 	0.83980 0.02920 0.67280 0.04400
C 	C 	0.98320 0.00720 0.62860 -0.10800
C 	C 	0.98550 0.01130 0.52700 0.10500
C 	C 	0.84160 0.03910 0.47440 -0.14600
C 	C 	0.69550 0.06300 0.51840 0.05600
C 	C 	0.14050 0.98460 0.48460 -0.07100
C 	C 	0.16430 0.98420 0.39080 -0.12500
C 	C 	0.32340 0.96130 0.34680 0.17600
C 	C 	0.46080 0.91420 0.40960 -0.21100
C 	C 	0.60390 0.89710 0.36080 0.11700
C 	C 	0.47980 0.96930 0.19800 0.14400
C 	C 	0.33180 0.98780 0.23900 -0.26600
C 	C 	0.39540 0.24040 0.87740 0.30500
C 	C 	0.44700 0.31100 0.92000 -0.11700
C 	C 	0.47940 0.26970 0.02700 0.06100
C 	C 	0.53220 0.33670 0.06560 -0.13500
C 	C 	0.55500 0.44780 0.99400 0.08700
C 	C 	0.52040 0.49190 0.88520 -0.13600
C 	C 	0.46840 0.42490 0.84900 0.05000
C 	C 	0.61150 0.52020 0.03460 -0.05600
C 	C 	0.63030 0.62900 0.97920 -0.11000
C 	C 	0.68610 0.69670 0.02360 0.13600
C 	C 	0.67550 0.81340 0.96000 -0.18200
C 	C 	0.71830 0.88100 0.00320 0.08900
C 	C 	0.79470 0.72020 0.16200 0.08700
C 	C 	0.74770 0.64890 0.12560 -0.18300
C 	C 	0.04050 0.74810 0.33400 0.34000
C 	C 	0.19430 0.67710 0.38140 -0.13200
C 	C 	0.33980 0.70200 0.32720 0.07000
C 	C 	0.48320 0.63580 0.37140 -0.14900
C 	C 	0.48550 0.53830 0.47300 0.10700
C 	C 	0.34160 0.51350 0.52560 -0.15700
C 	C 	0.19550 0.58140 0.48160 0.06900
C 	C 	0.64050 0.46920 0.51540 -0.06600
C 	C 	0.66430 0.37500 0.60920 -0.11200
C 	C 	0.82340 0.30810 0.65320 0.15100
C 	C 	0.96080 0.32380 0.59040 -0.20400
C 	C 	0.10390 0.25790 0.63920 0.12400
C 	C 	0.97980 0.16730 0.80200 0.10500
C 	C 	0.83180 0.22680 0.76100 -0.19300
C 	C 	0.89540 0.11780 0.12260 0.29400
C 	C 	0.94700 0.23100 0.08000 -0.09200
C 	C 	0.97940 0.29670 0.97300 0.02500
C 	C 	0.03220 0.40230 0.93440 -0.11400
C 	C 	0.05500 0.44180 0.00600 0.08300
C 	C 	0.02040 0.37710 0.11480 -0.10700
C 	C 	0.96840 0.27390 0.15100 0.01900
C 	C 	0.11150 0.55480 0.96540 -0.06000
C 	C 	0.13030 0.60820 0.02080 -0.10200
C 	C 	0.18610 0.72030 0.97640 0.13600
C 	C 	0.17550 0.77340 0.04000 -0.18200
C 	C 	0.21830 0.88420 0.99680 0.09600
C 	C 	0.29470 0.88220 0.83800 0.08900
C 	C 	0.24770 0.77450 0.87440 -0.18100
N 	N 	0.61420 0.92310 0.25640 -0.28600
N 	N 	0.77730 0.83310 0.10360 -0.26800
N 	N 	0.11420 0.17950 0.74360 -0.27000
N 	N 	0.27730 0.93670 0.89640 -0.27100
O 	O 	0.54650 0.07070 0.76240 -0.43500
O 	O 	0.41060 0.10980 0.61680 -0.30800
O 	O 	0.37920 0.13550 0.94180 -0.40600
O 	O 	0.37100 0.28140 0.77860 -0.38000
O 	O 	0.04650 0.83310 0.23760 -0.44700
O 	O 	0.91060 0.72660 0.38320 -0.33000
O 	O 	0.87920 0.07730 0.05820 -0.40000
O 	O 	0.87100 0.06000 0.22140 -0.36800
