data_crystal

_cell_length_a 13.26500
_cell_length_b 13.98300
_cell_length_c 14.18900
_cell_angle_alpha 112.06600
_cell_angle_beta  90.00000
_cell_angle_gamma 90.00000

_symmetry_space_group_name_	'P 1'
_symmetry_space_group_name_H-M	'P 1'

loop_
_symmetry_equiv_pos_as_xyz
  x,y,z

loop_
_atom_site_label
_atom_site_type_symbol
_atom_site_fract_x
_atom_site_fract_y
_atom_site_fract_z
_atom_site_charge
Zn	Zn	0.55314 0.40033 0.94897 1.21700
Zn	Zn	0.05314 0.59967 0.55103 1.21700
Zn	Zn	0.44686 0.59967 0.05103 1.21700
Zn	Zn	0.94686 0.40033 0.44897 1.21700
H 	H 	0.25770 0.72250 0.08780 0.02100
H 	H 	0.20590 0.89490 0.15380 0.07300
H 	H 	0.49320 0.98600 0.21510 0.06500
H 	H 	0.54250 0.81430 0.15950 0.02700
H 	H 	0.43990 0.25680 0.13550 0.08300
H 	H 	0.28990 0.51780 0.29080 0.05700
H 	H 	0.23820 0.26010 0.34790 0.09300
H 	H 	0.42950 0.11770 0.19920 0.13300
H 	H 	0.75770 0.27750 0.41220 0.02100
H 	H 	0.70590 0.10510 0.34620 0.07400
H 	H 	0.99320 0.01400 0.28490 0.06500
H 	H 	0.04250 0.18570 0.34050 0.02800
H 	H 	0.93990 0.74320 0.36450 0.08300
H 	H 	0.78990 0.48220 0.20920 0.05700
H 	H 	0.73820 0.73990 0.15210 0.09300
H 	H 	0.92950 0.88230 0.30080 0.13400
H 	H 	0.74230 0.27750 0.91220 0.02100
H 	H 	0.79410 0.10510 0.84620 0.07300
H 	H 	0.50680 0.01400 0.78490 0.06500
H 	H 	0.45750 0.18570 0.84050 0.02700
H 	H 	0.56010 0.74320 0.86450 0.08300
H 	H 	0.71010 0.48220 0.70920 0.05700
H 	H 	0.76180 0.73990 0.65210 0.09300
H 	H 	0.57050 0.88230 0.80080 0.13300
H 	H 	0.24230 0.72250 0.58780 0.02100
H 	H 	0.29410 0.89490 0.65380 0.07400
H 	H 	0.00680 0.98600 0.71510 0.06500
H 	H 	0.95750 0.81430 0.65950 0.02800
H 	H 	0.06010 0.25680 0.63550 0.08300
H 	H 	0.21010 0.51780 0.79080 0.05700
H 	H 	0.26180 0.26010 0.84790 0.09300
H 	H 	0.07050 0.11770 0.69920 0.13400
C 	C 	0.30470 0.77510 0.11520 0.03400
C 	C 	0.27390 0.87860 0.15320 -0.07400
C 	C 	0.34400 0.95530 0.18940 -0.00100
C 	C 	0.44580 0.93340 0.19140 -0.08100
C 	C 	0.47480 0.83050 0.15690 0.04600
C 	C 	0.30470 0.06560 0.22540 0.21100
C 	C 	0.34450 0.24180 0.23830 0.13200
C 	C 	0.39330 0.29250 0.18530 -0.09500
C 	C 	0.37480 0.39590 0.20450 -0.05200
C 	C 	0.30310 0.44870 0.27780 0.00500
C 	C 	0.25190 0.39960 0.33080 -0.05800
C 	C 	0.27210 0.29390 0.31200 -0.08400
C 	C 	0.42370 0.44380 0.13730 0.38000
C 	C 	0.16700 0.44810 0.40210 0.38500
C 	C 	0.80470 0.22490 0.38480 0.03400
C 	C 	0.77390 0.12140 0.34680 -0.07400
C 	C 	0.84400 0.04470 0.31060 -0.00000
C 	C 	0.94580 0.06660 0.30860 -0.08100
C 	C 	0.97480 0.16950 0.34310 0.04500
C 	C 	0.80470 0.93440 0.27460 0.21000
C 	C 	0.84450 0.75820 0.26170 0.13200
C 	C 	0.89330 0.70750 0.31470 -0.09500
C 	C 	0.87480 0.60410 0.29550 -0.05200
C 	C 	0.80310 0.55130 0.22220 0.00500
C 	C 	0.75190 0.60040 0.16920 -0.05800
C 	C 	0.77210 0.70610 0.18800 -0.08400
C 	C 	0.92370 0.55620 0.36270 0.38000
C 	C 	0.66700 0.55190 0.09790 0.38500
C 	C 	0.69530 0.22490 0.88480 0.03400
C 	C 	0.72610 0.12140 0.84680 -0.07400
C 	C 	0.65600 0.04470 0.81060 -0.00100
C 	C 	0.55420 0.06660 0.80860 -0.08100
C 	C 	0.52520 0.16950 0.84310 0.04600
C 	C 	0.69530 0.93440 0.77460 0.21100
C 	C 	0.65550 0.75820 0.76170 0.13200
C 	C 	0.60670 0.70750 0.81470 -0.09500
C 	C 	0.62520 0.60410 0.79550 -0.05200
C 	C 	0.69690 0.55130 0.72220 0.00500
C 	C 	0.74810 0.60040 0.66920 -0.05800
C 	C 	0.72790 0.70610 0.68800 -0.08400
C 	C 	0.57630 0.55620 0.86270 0.38000
C 	C 	0.83300 0.55190 0.59790 0.38500
C 	C 	0.19530 0.77510 0.61520 0.03400
C 	C 	0.22610 0.87860 0.65320 -0.07400
C 	C 	0.15600 0.95530 0.68940 -0.00000
C 	C 	0.05420 0.93340 0.69140 -0.08100
C 	C 	0.02520 0.83050 0.65690 0.04500
C 	C 	0.19530 0.06560 0.72540 0.21000
C 	C 	0.15550 0.24180 0.73830 0.13200
C 	C 	0.10670 0.29250 0.68530 -0.09500
C 	C 	0.12520 0.39590 0.70450 -0.05200
C 	C 	0.19690 0.44870 0.77780 0.00500
C 	C 	0.24810 0.39960 0.83080 -0.05800
C 	C 	0.22790 0.29390 0.81200 -0.08400
C 	C 	0.07630 0.44380 0.63730 0.38000
C 	C 	0.33300 0.44810 0.90210 0.38500
N 	N 	0.40590 0.75188 0.11883 -0.23000
N 	N 	0.36876 0.13713 0.21792 -0.24000
N 	N 	0.90590 0.24812 0.38117 -0.22900
N 	N 	0.86876 0.86287 0.28208 -0.24000
N 	N 	0.59410 0.24812 0.88117 -0.23000
N 	N 	0.63124 0.86287 0.78208 -0.24000
N 	N 	0.09410 0.75188 0.61883 -0.22900
N 	N 	0.13124 0.13713 0.71792 -0.24000
O 	O 	0.21672 0.08200 0.25248 -0.22800
O 	O 	0.48672 0.39067 0.07609 -0.46100
O 	O 	0.39724 0.53440 0.14920 -0.44500
O 	O 	0.17653 0.54068 0.46151 -0.43700
O 	O 	0.09174 0.39407 0.39768 -0.47800
O 	O 	0.71672 0.91800 0.24752 -0.22800
O 	O 	0.98672 0.60933 0.42391 -0.46100
O 	O 	0.89724 0.46560 0.35080 -0.44500
O 	O 	0.67653 0.45932 0.03849 -0.43600
O 	O 	0.59174 0.60593 0.10232 -0.47800
O 	O 	0.78328 0.91800 0.74752 -0.22800
O 	O 	0.51328 0.60933 0.92391 -0.46100
O 	O 	0.60276 0.46560 0.85080 -0.44500
O 	O 	0.82347 0.45932 0.53849 -0.43700
O 	O 	0.90826 0.60593 0.60232 -0.47800
O 	O 	0.28328 0.08200 0.75248 -0.22800
O 	O 	0.01328 0.39067 0.57609 -0.46100
O 	O 	0.10276 0.53440 0.64920 -0.44500
O 	O 	0.32347 0.54068 0.96151 -0.43600
O 	O 	0.40826 0.39407 0.89768 -0.47800
