data_crystal

_cell_length_a 17.22370
_cell_length_b 17.23440
_cell_length_c 17.29230
_cell_angle_alpha 90.54800
_cell_angle_beta  90.00000
_cell_angle_gamma 90.00000

_symmetry_space_group_name_	'P 1'
_symmetry_space_group_name_H-M	'P 1'

loop_
_symmetry_equiv_pos_as_xyz
  x,y,z

loop_
_atom_site_label
_atom_site_type_symbol
_atom_site_fract_x
_atom_site_fract_y
_atom_site_fract_z
_atom_site_charge
Zn	Zn	0.43191 0.11010 0.07550 1.21500
Zn	Zn	0.58555 0.17295 0.98380 1.17300
Zn	Zn	0.42421 0.26246 0.97898 1.20300
Zn	Zn	0.51799 0.26047 0.13403 1.20800
Zn	Zn	0.43660 0.60113 0.41320 1.17000
Zn	Zn	0.34817 0.75707 0.34434 1.21300
Zn	Zn	0.78913 0.32845 0.50658 1.20300
Zn	Zn	0.44460 0.76699 0.49806 1.21000
Zn	Zn	0.93191 0.88990 0.92450 1.21600
Zn	Zn	0.08555 0.82705 0.01620 1.17200
Zn	Zn	0.92421 0.73754 0.02102 1.20300
Zn	Zn	0.01799 0.73953 0.86597 1.20200
Zn	Zn	0.93660 0.39887 0.58680 1.17100
Zn	Zn	0.84817 0.24293 0.65566 1.21300
Zn	Zn	0.28913 0.67155 0.49342 1.20300
Zn	Zn	0.94460 0.23301 0.50194 1.21100
H 	H 	0.69340 0.97290 0.97670 0.02100
H 	H 	0.74340 0.75060 0.12660 0.08600
H 	H 	0.67930 0.68940 0.22070 0.02100
H 	H 	0.55910 0.71480 0.26370 0.07600
H 	H 	0.48290 0.80770 0.23460 0.00400
H 	H 	0.49720 0.90280 0.15360 0.10300
H 	H 	0.63190 0.20740 0.76320 0.00400
H 	H 	0.56180 0.32830 0.52850 0.09600
H 	H 	0.45410 0.38140 0.48680 -0.00800
H 	H 	0.34470 0.39790 0.54610 0.07400
H 	H 	0.30650 0.35590 0.65600 0.01200
H 	H 	0.37360 0.29660 0.74490 0.09400
H 	H 	0.71200 0.26660 0.27810 0.02400
H 	H 	0.93580 0.11410 0.31350 0.10000
H 	H 	0.99340 0.02440 0.24360 0.01600
H 	H 	0.96610 0.98240 0.12860 0.08500
H 	H 	0.87660 0.01790 0.05100 0.00700
H 	H 	0.77800 0.09910 0.07340 0.08700
H 	H 	0.39930 0.99830 0.27060 0.01500
H 	H 	0.55460 0.95050 0.48700 0.09500
H 	H 	0.64950 0.01040 0.54590 0.02200
H 	H 	0.69510 0.12920 0.52240 0.05600
H 	H 	0.66040 0.20820 0.42880 0.02200
H 	H 	0.56940 0.19630 0.34480 0.09400
H 	H 	0.45350 0.49120 0.21510 0.00800
H 	H 	0.37590 0.47740 0.95460 0.09500
H 	H 	0.33230 0.56200 0.86980 0.01500
H 	H 	0.28700 0.68190 0.89260 0.07900
H 	H 	0.30280 0.75030 0.99550 -0.00100
H 	H 	0.34110 0.71950 0.11010 0.09100
H 	H 	0.65870 0.54560 0.47520 0.01100
H 	H 	0.83880 0.57280 0.67810 0.08500
H 	H 	0.86240 0.66390 0.76480 0.01700
H 	H 	0.80540 0.77750 0.77990 0.06700
H 	H 	0.70830 0.82710 0.71470 0.02300
H 	H 	0.64450 0.77660 0.61900 0.09500
H 	H 	0.19340 0.02710 0.02330 0.02500
H 	H 	0.24340 0.24940 0.87340 0.08400
H 	H 	0.17930 0.31060 0.77930 0.02300
H 	H 	0.05910 0.28520 0.73630 0.07000
H 	H 	0.98290 0.19230 0.76540 0.01500
H 	H 	0.99720 0.09720 0.84640 0.11000
H 	H 	0.13190 0.79260 0.23680 0.00100
H 	H 	0.06180 0.67170 0.47150 0.10000
H 	H 	0.95410 0.61860 0.51320 -0.01400
H 	H 	0.84470 0.60210 0.45390 0.08000
H 	H 	0.80650 0.64410 0.34400 0.00600
H 	H 	0.87360 0.70340 0.25510 0.10000
H 	H 	0.21200 0.73340 0.72190 0.02400
H 	H 	0.43580 0.88590 0.68650 0.09800
H 	H 	0.49340 0.97560 0.75640 0.02000
H 	H 	0.46610 0.01760 0.87140 0.07600
H 	H 	0.37660 0.98210 0.94900 0.01200
H 	H 	0.27800 0.90090 0.92660 0.08500
H 	H 	0.89930 0.00170 0.72940 0.01300
H 	H 	0.05460 0.04950 0.51300 0.09100
H 	H 	0.14950 0.98960 0.45410 0.02500
H 	H 	0.19510 0.87080 0.47760 0.05300
H 	H 	0.16040 0.79180 0.57120 0.02400
H 	H 	0.06940 0.80370 0.65520 0.08700
H 	H 	0.95350 0.50880 0.78490 0.01000
H 	H 	0.87590 0.52260 0.04540 0.09600
H 	H 	0.83230 0.43800 0.13020 0.01500
H 	H 	0.78700 0.31810 0.10740 0.07900
H 	H 	0.80280 0.24970 0.00450 0.00000
H 	H 	0.84110 0.28050 0.88990 0.09000
H 	H 	0.15870 0.45440 0.52480 0.01000
H 	H 	0.33880 0.42720 0.32190 0.08500
H 	H 	0.36240 0.33610 0.23520 0.01600
H 	H 	0.30540 0.22250 0.22010 0.06700
H 	H 	0.20830 0.17290 0.28530 0.02200
H 	H 	0.14450 0.22340 0.38100 0.09400
C 	C 	0.54950 0.00560 0.03720 0.38900
C 	C 	0.60440 0.94350 0.05140 -0.15900
C 	C 	0.67540 0.93810 0.01340 0.07600
C 	C 	0.71610 0.87160 0.03870 -0.14500
C 	C 	0.67050 0.83540 0.09560 0.06500
C 	C 	0.59820 0.88060 0.10430 0.08500
C 	C 	0.69450 0.77030 0.13870 -0.11300
C 	C 	0.65390 0.73100 0.19800 0.03200
C 	C 	0.57800 0.74870 0.22660 -0.11900
C 	C 	0.52970 0.80730 0.20770 0.05900
C 	C 	0.53780 0.86720 0.15490 -0.14100
C 	C 	0.79330 0.84860 0.00840 0.40000
C 	C 	0.49390 0.23000 0.83890 0.36000
C 	C 	0.51880 0.24680 0.75840 -0.15200
C 	C 	0.59430 0.23230 0.73400 0.07900
C 	C 	0.60610 0.26050 0.65920 -0.16000
C 	C 	0.53540 0.29550 0.63390 0.07900
C 	C 	0.48000 0.28500 0.69980 0.07400
C 	C 	0.52050 0.32850 0.56320 -0.14400
C 	C 	0.45210 0.36200 0.53670 0.05300
C 	C 	0.38190 0.37070 0.57380 -0.13900
C 	C 	0.35820 0.34620 0.64390 0.05500
C 	C 	0.40090 0.30840 0.70020 -0.13300
C 	C 	0.68120 0.25910 0.62070 0.39700
C 	C 	0.67040 0.20790 0.13480 0.37400
C 	C 	0.73850 0.19290 0.18580 -0.14700
C 	C 	0.74610 0.22960 0.25810 0.07700
C 	C 	0.81210 0.20280 0.29560 -0.15800
C 	C 	0.84790 0.14730 0.24710 0.08200
C 	C 	0.80040 0.14130 0.17660 0.07200
C 	C 	0.91370 0.10400 0.26530 -0.13800
C 	C 	0.95050 0.04750 0.22060 0.06000
C 	C 	0.93310 0.02080 0.14760 -0.13400
C 	C 	0.87590 0.04150 0.09950 0.05500
C 	C 	0.81410 0.09500 0.11320 -0.12800
C 	C 	0.83240 0.23010 0.37370 0.40200
C 	C 	0.45690 0.14210 0.23550 0.39300
C 	C 	0.47200 0.08720 0.30010 -0.15900
C 	C 	0.43750 0.01580 0.30460 0.10100
C 	C 	0.46580 0.97300 0.36490 -0.17000
C 	C 	0.52100 0.01820 0.40390 0.08200
C 	C 	0.52770 0.09160 0.35970 0.07500
C 	C 	0.56640 0.99880 0.46650 -0.12400
C 	C 	0.62640 0.03700 0.50540 0.03000
C 	C 	0.65590 0.11140 0.48990 -0.09600
C 	C 	0.63290 0.16190 0.43090 0.03400
C 	C 	0.57640 0.15330 0.37630 -0.12400
C 	C 	0.43910 0.89530 0.38440 0.40600
C 	C 	0.43600 0.39900 0.08390 0.40600
C 	C 	0.41770 0.48130 0.10110 -0.16200
C 	C 	0.43070 0.51610 0.17340 0.09100
C 	C 	0.40540 0.59230 0.17450 -0.15800
C 	C 	0.40590 0.64200 0.24350 0.40000
C 	C 	0.38610 0.53720 0.05140 0.08000
C 	C 	0.36710 0.52700 0.97420 -0.13700
C 	C 	0.33650 0.58010 0.92050 0.04200
C 	C 	0.31120 0.65730 0.93370 -0.13200
C 	C 	0.31860 0.69890 0.99990 0.04700
C 	C 	0.34470 0.68050 0.07270 -0.13700
C 	C 	0.37630 0.60940 0.09700 0.07000
C 	C 	0.57740 0.68240 0.50010 0.34400
C 	C 	0.64950 0.64570 0.53640 -0.14100
C 	C 	0.67780 0.57580 0.51580 0.07600
C 	C 	0.74000 0.55420 0.56340 -0.16300
C 	C 	0.75030 0.61240 0.61800 0.07500
C 	C 	0.69220 0.67360 0.60060 0.06500
C 	C 	0.80660 0.61590 0.67550 -0.12400
C 	C 	0.82230 0.67440 0.73040 0.03100
C 	C 	0.78570 0.74640 0.74020 -0.10300
C 	C 	0.72420 0.77790 0.69910 0.03600
C 	C 	0.68400 0.74550 0.63840 -0.12200
C 	C 	0.78190 0.48100 0.55660 0.37900
C 	C 	0.04950 0.99440 0.96280 0.36300
C 	C 	0.10440 0.05650 0.94860 -0.15100
C 	C 	0.17540 0.06190 0.98660 0.06600
C 	C 	0.21610 0.12840 0.96130 -0.14300
C 	C 	0.17050 0.16460 0.90440 0.06300
C 	C 	0.09820 0.11940 0.89570 0.08200
C 	C 	0.19450 0.22970 0.86130 -0.11000
C 	C 	0.15390 0.26900 0.80200 0.02500
C 	C 	0.07800 0.25130 0.77340 -0.10900
C 	C 	0.02970 0.19270 0.79230 0.04100
C 	C 	0.03780 0.13280 0.84510 -0.14700
C 	C 	0.29330 0.15140 0.99160 0.40000
C 	C 	0.99390 0.77000 0.16110 0.37800
C 	C 	0.01880 0.75320 0.24160 -0.17400
C 	C 	0.09430 0.76770 0.26600 0.08900
C 	C 	0.10610 0.73950 0.34080 -0.16400
C 	C 	0.03540 0.70450 0.36610 0.07600
C 	C 	0.98000 0.71500 0.30020 0.09500
C 	C 	0.02050 0.67150 0.43680 -0.16100
C 	C 	0.95210 0.63800 0.46330 0.07700
C 	C 	0.88190 0.62930 0.42620 -0.15800
C 	C 	0.85820 0.65380 0.35610 0.07300
C 	C 	0.90090 0.69160 0.29980 -0.14900
C 	C 	0.18120 0.74090 0.37930 0.39800
C 	C 	0.17040 0.79210 0.86520 0.37400
C 	C 	0.23850 0.80710 0.81420 -0.14700
C 	C 	0.24610 0.77040 0.74190 0.07700
C 	C 	0.31210 0.79720 0.70440 -0.15800
C 	C 	0.34790 0.85270 0.75290 0.08000
C 	C 	0.30040 0.85870 0.82340 0.07000
C 	C 	0.41370 0.89600 0.73470 -0.13300
C 	C 	0.45050 0.95250 0.77940 0.04900
C 	C 	0.43310 0.97920 0.85240 -0.11800
C 	C 	0.37590 0.95850 0.90050 0.04400
C 	C 	0.31410 0.90500 0.88680 -0.12300
C 	C 	0.33240 0.76990 0.62630 0.40200
C 	C 	0.95690 0.85790 0.76450 0.39000
C 	C 	0.97200 0.91280 0.69990 -0.14600
C 	C 	0.93750 0.98420 0.69540 0.10400
C 	C 	0.96580 0.02700 0.63510 -0.16400
C 	C 	0.02100 0.98180 0.59610 0.07300
C 	C 	0.02770 0.90840 0.64030 0.06100
C 	C 	0.06640 0.00120 0.53350 -0.11600
C 	C 	0.12640 0.96300 0.49460 0.02100
C 	C 	0.15590 0.88860 0.51010 -0.08800
C 	C 	0.13290 0.83810 0.56910 0.02500
C 	C 	0.07640 0.84670 0.62370 -0.11400
C 	C 	0.93910 0.10470 0.61560 0.40400
C 	C 	0.93600 0.60100 0.91610 0.40600
C 	C 	0.91770 0.51870 0.89890 -0.16100
C 	C 	0.93070 0.48390 0.82660 0.09100
C 	C 	0.90540 0.40770 0.82550 -0.15600
C 	C 	0.90590 0.35800 0.75650 0.40000
C 	C 	0.88610 0.46280 0.94860 0.08300
C 	C 	0.86710 0.47300 0.02580 -0.14000
C 	C 	0.83650 0.41990 0.07950 0.04300
C 	C 	0.81120 0.34270 0.06630 -0.13100
C 	C 	0.81860 0.30110 0.00010 0.04500
C 	C 	0.84470 0.31950 0.92730 -0.13500
C 	C 	0.87630 0.39060 0.90300 0.06900
C 	C 	0.07740 0.31760 0.49990 0.34500
C 	C 	0.14950 0.35430 0.46360 -0.14200
C 	C 	0.17780 0.42420 0.48420 0.07700
C 	C 	0.24000 0.44580 0.43660 -0.16400
C 	C 	0.25030 0.38760 0.38200 0.07500
C 	C 	0.19220 0.32640 0.39940 0.06500
C 	C 	0.30660 0.38410 0.32450 -0.12500
C 	C 	0.32230 0.32560 0.26960 0.03000
C 	C 	0.28570 0.25360 0.25980 -0.10300
C 	C 	0.22420 0.22210 0.30090 0.03600
C 	C 	0.18400 0.25450 0.36160 -0.12200
C 	C 	0.28190 0.51900 0.44340 0.38000
O 	O 	0.48860 0.19980 0.04500 -0.95800
O 	O 	0.48920 0.01260 0.08080 -0.47600
O 	O 	0.56530 0.05310 0.98430 -0.48400
O 	O 	0.82960 0.90120 0.97230 -0.49200
O 	O 	0.81820 0.78140 0.01930 -0.50700
O 	O 	0.52460 0.17650 0.87450 -0.50100
O 	O 	0.44140 0.27660 0.86830 -0.47600
O 	O 	0.73640 0.22460 0.65870 -0.48900
O 	O 	0.69120 0.29280 0.55820 -0.49300
O 	O 	0.65740 0.16300 0.07930 -0.50800
O 	O 	0.62930 0.26740 0.15400 -0.49000
O 	O 	0.89110 0.20080 0.40640 -0.50200
O 	O 	0.78930 0.28230 0.40320 -0.51600
O 	O 	0.49540 0.20450 0.23070 -0.48700
O 	O 	0.40720 0.12090 0.18690 -0.49300
O 	O 	0.46410 0.86530 0.44680 -0.50200
O 	O 	0.39180 0.86220 0.33830 -0.49600
O 	O 	0.47310 0.36400 0.13630 -0.51600
O 	O 	0.41390 0.36920 0.02080 -0.51200
O 	O 	0.45020 0.62280 0.29630 -0.50000
O 	O 	0.36200 0.70240 0.24420 -0.47700
O 	O 	0.37970 0.70160 0.43500 -0.95900
O 	O 	0.54400 0.73710 0.53840 -0.48200
O 	O 	0.55220 0.65200 0.43850 -0.47900
O 	O 	0.83450 0.46320 0.60410 -0.51300
O 	O 	0.75900 0.43700 0.50170 -0.49800
O 	O 	0.98860 0.80020 0.95500 -0.95100
O 	O 	0.98920 0.98740 0.91920 -0.45900
O 	O 	0.06530 0.94690 0.01570 -0.47700
O 	O 	0.32960 0.09880 0.02770 -0.49300
O 	O 	0.31820 0.21860 0.98070 -0.50700
O 	O 	0.02460 0.82350 0.12550 -0.51000
O 	O 	0.94140 0.72340 0.13170 -0.47900
O 	O 	0.23640 0.77540 0.34130 -0.49000
O 	O 	0.19120 0.70720 0.44180 -0.49400
O 	O 	0.15740 0.83700 0.92070 -0.51100
O 	O 	0.12930 0.73260 0.84600 -0.49400
O 	O 	0.39110 0.79920 0.59360 -0.50300
O 	O 	0.28930 0.71770 0.59680 -0.51700
O 	O 	0.99540 0.79550 0.76930 -0.47900
O 	O 	0.90720 0.87910 0.81310 -0.49100
O 	O 	0.96410 0.13470 0.55320 -0.49900
O 	O 	0.89180 0.13780 0.66170 -0.49500
O 	O 	0.97310 0.63600 0.86370 -0.51200
O 	O 	0.91390 0.63080 0.97920 -0.50900
O 	O 	0.95020 0.37720 0.70370 -0.49700
O 	O 	0.86200 0.29760 0.75580 -0.47600
O 	O 	0.87970 0.29840 0.56500 -0.95800
O 	O 	0.04400 0.26290 0.46160 -0.48500
O 	O 	0.05220 0.34800 0.56150 -0.48300
O 	O 	0.33450 0.53680 0.39590 -0.51400
O 	O 	0.25900 0.56300 0.49830 -0.49900
