data_crystal

_cell_length_a 18.25190
_cell_length_b 18.25190
_cell_length_c 18.25200
_cell_angle_alpha 60.00370
_cell_angle_beta  60.00370
_cell_angle_gamma 60.00050

_symmetry_space_group_name_	'P 1'
_symmetry_space_group_name_H-M	'P 1'

loop_
_symmetry_equiv_pos_as_xyz
  x,y,z

loop_
_atom_site_label
_atom_site_type_symbol
_atom_site_fract_x
_atom_site_fract_y
_atom_site_fract_z
_atom_site_charge
Zn	Zn	0.88127 0.70639 0.20624 1.20600
Zn	Zn	0.29361 0.11873 0.79376 1.20600
Zn	Zn	0.11873 0.29361 0.79376 1.20600
Zn	Zn	0.70639 0.88127 0.20624 1.20600
Zn	Zn	0.70606 0.70606 0.38133 1.20400
Zn	Zn	0.70624 0.70624 0.20614 1.20300
Zn	Zn	0.29394 0.29394 0.61867 1.20400
Zn	Zn	0.29376 0.29376 0.79386 1.20300
H 	H 	0.54630 0.06090 0.34980 0.05700
H 	H 	0.54310 0.84610 0.56150 0.05800
H 	H 	0.54720 0.05980 0.04610 0.05200
H 	H 	0.54320 0.84860 0.04380 0.05100
H 	H 	0.06260 0.84660 0.04860 0.05700
H 	H 	0.93910 0.45370 0.65020 0.05600
H 	H 	0.15390 0.45690 0.43850 0.05700
H 	H 	0.94020 0.45280 0.95390 0.05200
H 	H 	0.15140 0.45680 0.95620 0.05100
H 	H 	0.15340 0.93740 0.95140 0.05700
H 	H 	0.45370 0.93910 0.65020 0.05600
H 	H 	0.45690 0.15390 0.43850 0.05700
H 	H 	0.45280 0.94020 0.95390 0.05200
H 	H 	0.45680 0.15140 0.95620 0.05100
H 	H 	0.93740 0.15340 0.95140 0.05700
H 	H 	0.06090 0.54630 0.34980 0.05600
H 	H 	0.84610 0.54310 0.56150 0.05700
H 	H 	0.05980 0.54720 0.04610 0.05200
H 	H 	0.84860 0.54320 0.04380 0.05100
H 	H 	0.84660 0.06260 0.04860 0.05700
H 	H 	0.54440 0.54440 0.34770 0.04800
H 	H 	0.54330 0.54330 0.56380 0.05100
H 	H 	0.45560 0.45560 0.65230 0.04800
H 	H 	0.45670 0.45670 0.43620 0.05100
C 	C 	0.61220 0.88980 0.38620 0.30800
C 	C 	0.55250 0.94790 0.44740 -0.04700
C 	C 	0.52760 0.03520 0.41200 -0.02800
C 	C 	0.52640 0.90820 0.53550 -0.03000
C 	C 	0.61340 0.88660 0.10910 0.34800
C 	C 	0.55610 0.94510 0.05380 -0.08100
C 	C 	0.52920 0.03360 0.02810 -0.01600
C 	C 	0.52640 0.91060 0.02630 -0.01800
C 	C 	0.03650 0.90870 0.02850 -0.03100
C 	C 	0.11020 0.38780 0.61380 0.30800
C 	C 	0.05210 0.44750 0.55260 -0.04700
C 	C 	0.96480 0.47240 0.58800 -0.02800
C 	C 	0.09180 0.47360 0.46450 -0.03000
C 	C 	0.11340 0.38660 0.89090 0.34800
C 	C 	0.05490 0.44390 0.94620 -0.08100
C 	C 	0.96640 0.47080 0.97190 -0.01600
C 	C 	0.08940 0.47360 0.97370 -0.01800
C 	C 	0.09130 0.96350 0.97150 -0.03100
C 	C 	0.38780 0.11020 0.61380 0.30800
C 	C 	0.44750 0.05210 0.55260 -0.04700
C 	C 	0.47240 0.96480 0.58800 -0.02800
C 	C 	0.47360 0.09180 0.46450 -0.03000
C 	C 	0.38660 0.11340 0.89090 0.34800
C 	C 	0.44390 0.05490 0.94620 -0.08100
C 	C 	0.47080 0.96640 0.97190 -0.01600
C 	C 	0.47360 0.08940 0.97370 -0.01800
C 	C 	0.96350 0.09130 0.97150 -0.03100
C 	C 	0.88980 0.61220 0.38620 0.30800
C 	C 	0.94790 0.55250 0.44740 -0.04700
C 	C 	0.03520 0.52760 0.41200 -0.02800
C 	C 	0.90820 0.52640 0.53550 -0.03000
C 	C 	0.88660 0.61340 0.10910 0.34800
C 	C 	0.94510 0.55610 0.05380 -0.08100
C 	C 	0.03360 0.52920 0.02810 -0.01600
C 	C 	0.91060 0.52640 0.02630 -0.01800
C 	C 	0.90870 0.03650 0.02850 -0.03100
C 	C 	0.61140 0.61140 0.39300 0.39900
C 	C 	0.55420 0.55420 0.44520 -0.09200
C 	C 	0.52700 0.52700 0.40970 -0.00700
C 	C 	0.52580 0.52580 0.53670 -0.01800
C 	C 	0.88480 0.88480 0.11710 0.33500
C 	C 	0.94650 0.94650 0.05370 -0.04200
C 	C 	0.38860 0.38860 0.60700 0.39900
C 	C 	0.44580 0.44580 0.55480 -0.09200
C 	C 	0.47300 0.47300 0.59030 -0.00700
C 	C 	0.47420 0.47420 0.46330 -0.01800
C 	C 	0.11520 0.11520 0.88290 0.33500
C 	C 	0.05350 0.05350 0.94630 -0.04200
O 	O 	0.63160 0.80440 0.43210 -0.47300
O 	O 	0.63370 0.93370 0.30200 -0.47900
O 	O 	0.63020 0.80340 0.13560 -0.50100
O 	O 	0.63310 0.93070 0.13160 -0.48300
O 	O 	0.93080 0.80240 0.13440 -0.49800
O 	O 	0.19560 0.36840 0.56790 -0.47300
O 	O 	0.06630 0.36630 0.69800 -0.47900
O 	O 	0.19660 0.36980 0.86440 -0.50100
O 	O 	0.06930 0.36690 0.86840 -0.48300
O 	O 	0.19760 0.06920 0.86560 -0.49800
O 	O 	0.36840 0.19560 0.56790 -0.47300
O 	O 	0.36630 0.06630 0.69800 -0.47900
O 	O 	0.36980 0.19660 0.86440 -0.50100
O 	O 	0.36690 0.06930 0.86840 -0.48300
O 	O 	0.06920 0.19760 0.86560 -0.49800
O 	O 	0.80440 0.63160 0.43210 -0.47300
O 	O 	0.93370 0.63370 0.30200 -0.47900
O 	O 	0.80340 0.63020 0.13560 -0.50100
O 	O 	0.93070 0.63310 0.13160 -0.48300
O 	O 	0.80240 0.93080 0.13440 -0.49800
O 	O 	0.75020 0.75020 0.25030 -0.96500
O 	O 	0.63260 0.63260 0.43140 -0.52500
O 	O 	0.63030 0.63030 0.31000 -0.49200
O 	O 	0.24980 0.24980 0.74970 -0.96500
O 	O 	0.36740 0.36740 0.56860 -0.52500
O 	O 	0.36970 0.36970 0.69000 -0.49200
