data_crystal

_cell_length_a 7.92730
_cell_length_b 10.55600
_cell_length_c 13.15500
_cell_angle_alpha 107.26000
_cell_angle_beta  107.06000
_cell_angle_gamma 90.65000

_symmetry_space_group_name_	'P 1'
_symmetry_space_group_name_H-M	'P 1'

loop_
_symmetry_equiv_pos_as_xyz
  x,y,z

loop_
_atom_site_label
_atom_site_type_symbol
_atom_site_fract_x
_atom_site_fract_y
_atom_site_fract_z
_atom_site_charge
Zn	Zn	0.27383 0.95463 0.70183 1.21600
Zn	Zn	0.61427 0.12923 0.82206 1.20900
H 	H 	0.55020 0.15860 0.14060 -0.00100
H 	H 	0.56600 0.15180 0.32260 0.12300
H 	H 	0.23810 0.84150 0.17610 0.14700
H 	H 	0.21960 0.84940 0.00580 -0.02800
H 	H 	0.30670 0.93280 0.38190 0.10700
H 	H 	0.57970 0.14040 0.46090 0.07600
H 	H 	0.24030 0.45210 0.80280 0.09900
H 	H 	0.91810 0.28590 0.72880 0.07000
H 	H 	0.12520 0.62730 0.81150 0.08500
H 	H 	0.95060 0.80760 0.81830 0.02900
H 	H 	0.50700 0.57560 0.69020 0.01300
H 	H 	0.66490 0.39620 0.69720 0.10000
H 	H 	0.71280 0.39530 0.99630 0.00200
H 	H 	0.96430 0.53000 0.12470 0.08900
H 	H 	0.26840 0.24640 0.02620 0.08900
H 	H 	0.01700 0.11160 0.89790 0.01400
H 	H 	0.62060 0.82140 0.50730 0.09100
H 	H 	0.87230 0.94490 0.64510 0.02100
H 	H 	0.17890 0.70140 0.49930 0.01200
H 	H 	0.92720 0.57800 0.36150 0.08800
C 	C 	0.39300 0.01700 0.94360 0.39200
C 	C 	0.39100 0.00600 0.04680 -0.26900
C 	C 	0.48200 0.08800 0.14330 0.16800
C 	C 	0.49200 0.08700 0.26020 -0.25300
C 	C 	0.39200 0.98900 0.27450 0.26900
C 	C 	0.30700 0.91320 0.17620 -0.30200
C 	C 	0.29600 0.91490 0.06670 0.22800
C 	C 	0.38800 0.99100 0.37500 -0.14400
C 	C 	0.50200 0.07900 0.46730 -0.11600
C 	C 	0.50100 0.07600 0.58950 0.37100
C 	C 	0.27900 0.24940 0.77950 0.37100
C 	C 	0.17500 0.36920 0.78000 -0.15100
C 	C 	0.98800 0.36600 0.74890 -0.06000
C 	C 	0.90900 0.48500 0.74860 0.10300
C 	C 	0.00200 0.61320 0.78700 -0.13100
C 	C 	0.89100 0.72200 0.78500 0.07200
C 	C 	0.71500 0.71410 0.74130 -0.17000
C 	C 	0.62000 0.83200 0.74720 0.41800
C 	C 	0.63030 0.58840 0.71270 0.09800
C 	C 	0.72800 0.47920 0.71720 -0.16600
C 	C 	0.82420 0.36540 0.00230 0.08300
C 	C 	0.97480 0.44610 0.07920 -0.13600
C 	C 	0.14130 0.40150 0.08820 0.07400
C 	C 	0.15710 0.27620 0.02020 -0.11200
C 	C 	0.00640 0.19550 0.94340 0.06300
C 	C 	0.30480 0.48270 0.17160 0.07700
C 	C 	0.61110 0.63160 0.33070 0.07800
C 	C 	0.74900 0.68740 0.42070 0.06000
C 	C 	0.73250 0.79740 0.50570 -0.11000
C 	C 	0.88330 0.87130 0.58830 0.05200
C 	C 	0.06700 0.72550 0.50090 0.07100
C 	C 	0.91620 0.65150 0.41830 -0.12600
N 	N 	0.84000 0.24010 0.93440 -0.25000
N 	N 	0.46730 0.43120 0.18150 -0.08100
N 	N 	0.62050 0.50560 0.26110 -0.08300
N 	N 	0.44860 0.68310 0.32070 -0.08300
N 	N 	0.29540 0.60870 0.24110 -0.08500
N 	N 	0.05060 0.83540 0.58590 -0.23000
O 	O 	0.52400 0.08120 0.94010 -0.47200
O 	O 	0.26000 0.95010 0.85260 -0.41900
O 	O 	0.61900 0.13760 0.66770 -0.47500
O 	O 	0.37300 0.99400 0.58410 -0.44100
O 	O 	0.44200 0.27340 0.81850 -0.46200
O 	O 	0.17720 0.13560 0.73600 -0.45200
O 	O 	0.70100 0.94610 0.79330 -0.46200
O 	O 	0.44980 0.81760 0.70470 -0.45800
