data_crystal

_cell_length_a 7.16220
_cell_length_b 9.09400
_cell_length_c 9.74900
_cell_angle_alpha 105.66300
_cell_angle_beta  103.18100
_cell_angle_gamma 98.24800

_symmetry_space_group_name_	'P 1'
_symmetry_space_group_name_H-M	'P 1'

loop_
_symmetry_equiv_pos_as_xyz
  x,y,z

loop_
_atom_site_label
_atom_site_type_symbol
_atom_site_fract_x
_atom_site_fract_y
_atom_site_fract_z
_atom_site_charge
In	In	-0.00000 0.50000 -0.00000 1.87700
In	In	0.50000 0.50000 -0.00000 1.90100
H 	H 	0.50800 0.01300 0.70900 0.11900
H 	H 	0.76710 0.11410 0.54870 0.08100
H 	H 	0.81290 0.00790 0.64960 0.11400
H 	H 	0.07920 0.28250 0.35030 0.11300
H 	H 	0.05650 0.30320 0.51020 0.12800
H 	H 	0.20650 0.54770 0.41180 -0.06100
H 	H 	0.33070 0.48310 0.52770 -0.04100
H 	H 	0.29160 0.14510 0.60370 0.05400
H 	H 	0.43560 0.20010 0.51880 0.04800
H 	H 	0.75900 0.27700 0.34600 -0.02300
H 	H 	0.49200 0.98700 0.29100 0.05000
H 	H 	0.23290 0.88590 0.45130 0.02800
H 	H 	0.18710 0.99210 0.35040 -0.01500
H 	H 	0.92080 0.71750 0.64970 -0.01100
H 	H 	0.94350 0.69680 0.48980 -0.04100
H 	H 	0.79350 0.45230 0.58820 0.16600
H 	H 	0.66930 0.51690 0.47230 0.14200
H 	H 	0.70840 0.85490 0.39630 0.04200
H 	H 	0.56440 0.79990 0.48120 0.04800
H 	H 	0.24100 0.72300 0.65400 0.20000
C 	C 	0.70880 0.03130 0.58130 -0.07700
C 	C 	0.04980 0.35260 0.43310 -0.41000
C 	C 	0.84180 0.37700 0.38240 0.13900
C 	C 	0.20250 0.50400 0.49180 0.24700
C 	C 	0.80100 0.41970 0.24040 0.34900
C 	C 	0.64630 0.23150 0.79270 0.40400
C 	C 	0.55920 0.08680 0.66050 -0.12700
C 	C 	0.38840 0.11470 0.55270 -0.06800
C 	C 	0.29120 0.96870 0.41870 -0.03900
C 	C 	0.95020 0.64740 0.56690 0.31500
C 	C 	0.15820 0.62300 0.61760 -0.48800
C 	C 	0.79750 0.49600 0.50820 -0.35000
C 	C 	0.19900 0.58030 0.75960 0.52500
C 	C 	0.35370 0.76850 0.20730 0.46400
C 	C 	0.44080 0.91320 0.33950 -0.19400
C 	C 	0.61160 0.88530 0.44730 -0.05300
O 	O 	0.76640 0.61460 0.98550 -0.35500
O 	O 	0.53270 0.27620 0.86990 -0.37000
O 	O 	0.64360 0.46440 0.20360 -0.61200
O 	O 	0.82130 0.29880 0.81880 -0.38200
O 	O 	0.92210 0.40410 0.16440 -0.58300
O 	O 	0.23360 0.38540 0.01450 -0.90800
O 	O 	0.46730 0.72380 0.13010 -0.70700
O 	O 	0.35640 0.53560 0.79640 -0.46700
O 	O 	0.17870 0.70120 0.18120 -0.69100
O 	O 	0.07790 0.59590 0.83560 -0.48100
