data_crystal

_cell_length_a 10.13700
_cell_length_b 15.74500
_cell_length_c 15.98800
_cell_angle_alpha 90.00000
_cell_angle_beta  90.00000
_cell_angle_gamma 107.76000

_symmetry_space_group_name_	'P 1'
_symmetry_space_group_name_H-M	'P 1'

loop_
_symmetry_equiv_pos_as_xyz
  x,y,z

loop_
_atom_site_label
_atom_site_type_symbol
_atom_site_fract_x
_atom_site_fract_y
_atom_site_fract_z
_atom_site_charge
Ti	Ti	0.86730 0.34200 0.67509 3.06600
Ti	Ti	0.63160 0.15730 0.59892 3.07000
Ti	Ti	0.13270 0.65800 0.17509 3.06700
Ti	Ti	0.36840 0.84270 0.09892 3.07000
H 	H 	0.95410 0.10870 0.62320 0.10800
H 	H 	0.04770 0.01760 0.70310 -0.02800
H 	H 	0.05330 0.90220 0.77580 -0.01900
H 	H 	0.17010 0.82200 0.85950 0.15900
H 	H 	0.21250 0.99240 0.04640 0.12100
H 	H 	0.10110 0.07590 0.96720 -0.00900
H 	H 	0.91210 0.10010 0.91190 -0.02400
H 	H 	0.79850 0.18070 0.83700 0.11900
H 	H 	0.07180 0.53440 0.75780 0.07300
H 	H 	0.22620 0.67430 0.75450 -0.02500
H 	H 	0.39400 0.78550 0.74500 -0.03700
H 	H 	0.55320 0.91320 0.74040 0.13600
H 	H 	0.43770 0.96860 0.51630 0.06800
H 	H 	0.26660 0.83210 0.51400 -0.02500
H 	H 	0.09690 0.71900 0.53230 -0.01400
H 	H 	0.95160 0.57140 0.51840 0.12700
H 	H 	0.27720 0.50160 0.22800 0.14800
H 	H 	0.37950 0.41730 0.30610 -0.02900
H 	H 	0.42730 0.46870 0.57210 -0.03700
H 	H 	0.54800 0.39100 0.65020 0.11700
H 	H 	0.69960 0.31720 0.44030 0.11200
H 	H 	0.58640 0.40050 0.35550 -0.02000
H 	H 	0.43860 0.59510 0.49260 -0.01700
H 	H 	0.34150 0.68330 0.41770 0.13500
H 	H 	0.04590 0.89130 0.12320 0.10000
H 	H 	0.95230 0.98240 0.20310 -0.03000
H 	H 	0.94670 0.09780 0.27580 -0.02100
H 	H 	0.82990 0.17800 0.35950 0.15400
H 	H 	0.78750 0.00760 0.54640 0.15800
H 	H 	0.89890 0.92410 0.46720 -0.02500
H 	H 	0.08790 0.89990 0.41190 -0.02800
H 	H 	0.20150 0.81930 0.33700 0.11400
H 	H 	0.92820 0.46560 0.25780 0.06900
H 	H 	0.77380 0.32570 0.25450 -0.02500
H 	H 	0.60600 0.21450 0.24500 -0.04000
H 	H 	0.44680 0.08680 0.24040 0.13600
H 	H 	0.56230 0.03140 0.01630 0.06400
H 	H 	0.73340 0.16790 0.01400 -0.03400
H 	H 	0.90310 0.28100 0.03230 -0.01700
H 	H 	0.04840 0.42860 0.01840 0.11500
H 	H 	0.72280 0.49840 0.72800 0.15300
H 	H 	0.62050 0.58270 0.80610 -0.03300
H 	H 	0.57270 0.53130 0.07210 -0.01800
H 	H 	0.45200 0.60900 0.15020 0.09700
H 	H 	0.30040 0.68280 0.94030 0.09300
H 	H 	0.41360 0.59950 0.85550 -0.00000
H 	H 	0.56140 0.40490 0.99260 -0.01500
H 	H 	0.65850 0.31670 0.91770 0.14500
C 	C 	0.86940 0.15480 0.72470 0.34400
C 	C 	0.94410 0.10610 0.68230 -0.34800
C 	C 	0.00240 0.05420 0.73080 0.09900
C 	C 	0.99870 0.05250 0.81680 -0.10300
C 	C 	0.07070 0.99880 0.86470 -0.08600
C 	C 	0.08640 0.92220 0.83010 0.11400
C 	C 	0.15620 0.87450 0.88180 -0.40700
C 	C 	0.20140 0.89830 0.95670 0.49000
C 	C 	0.18150 0.97430 0.99120 -0.34400
C 	C 	0.11530 0.02390 0.94380 0.10200
C 	C 	0.92020 0.10120 0.85260 0.12400
C 	C 	0.85380 0.15040 0.80920 -0.39500
C 	C 	0.98770 0.53680 0.63800 0.43200
C 	C 	0.07850 0.57020 0.70930 -0.36900
C 	C 	0.17280 0.65300 0.70580 0.12200
C 	C 	0.19580 0.70630 0.63870 -0.08300
C 	C 	0.30150 0.79230 0.63640 -0.09000
C 	C 	0.39660 0.82240 0.69760 0.15000
C 	C 	0.49130 0.89920 0.69430 -0.35200
C 	C 	0.51510 0.96620 0.62990 0.42800
C 	C 	0.42700 0.93250 0.56490 -0.38000
C 	C 	0.32250 0.85000 0.56240 0.11100
C 	C 	0.09870 0.67730 0.57490 0.09200
C 	C 	0.00300 0.59110 0.56820 -0.33400
C 	C 	0.29870 0.60300 0.31140 0.43100
C 	C 	0.31290 0.52240 0.28170 -0.39800
C 	C 	0.37630 0.47290 0.32750 0.13000
C 	C 	0.43850 0.50290 0.40740 -0.10600
C 	C 	0.50600 0.44900 0.45630 -0.07800
C 	C 	0.48650 0.44090 0.54480 0.10500
C 	C 	0.55510 0.39180 0.59100 -0.39300
C 	C 	0.63390 0.34390 0.55220 0.42200
C 	C 	0.64540 0.34900 0.46710 -0.39900
C 	C 	0.57950 0.40030 0.41480 0.08900
C 	C 	0.41150 0.57790 0.43660 0.11100
C 	C 	0.35010 0.63010 0.39370 -0.34200
C 	C 	0.13060 0.84520 0.22470 0.34000
C 	C 	0.05590 0.89390 0.18230 -0.34400
C 	C 	0.99760 0.94580 0.23080 0.09200
C 	C 	0.00130 0.94750 0.31680 -0.09900
C 	C 	0.92930 0.00120 0.36470 -0.09600
C 	C 	0.91360 0.07780 0.33010 0.11700
C 	C 	0.84380 0.12550 0.38180 -0.40700
C 	C 	0.79860 0.10170 0.45670 0.47800
C 	C 	0.81850 0.02570 0.49120 -0.40100
C 	C 	0.88470 0.97610 0.44380 0.12300
C 	C 	0.07980 0.89880 0.35260 0.11900
C 	C 	0.14620 0.84960 0.30920 -0.39400
C 	C 	0.01230 0.46320 0.13800 0.42400
C 	C 	0.92150 0.42980 0.20930 -0.36500
C 	C 	0.82720 0.34700 0.20580 0.11700
C 	C 	0.80420 0.29370 0.13870 -0.08100
C 	C 	0.69850 0.20770 0.13640 -0.09700
C 	C 	0.60340 0.17760 0.19760 0.15400
C 	C 	0.50870 0.10080 0.19430 -0.35800
C 	C 	0.48490 0.03380 0.12990 0.43300
C 	C 	0.57300 0.06750 0.06490 -0.38700
C 	C 	0.67750 0.15000 0.06240 0.11300
C 	C 	0.90130 0.32270 0.07490 0.08400
C 	C 	0.99700 0.40890 0.06820 -0.32800
C 	C 	0.70130 0.39700 0.81140 0.44100
C 	C 	0.68710 0.47760 0.78170 -0.40900
C 	C 	0.62370 0.52710 0.82750 0.15000
C 	C 	0.56150 0.49710 0.90740 -0.13200
C 	C 	0.49400 0.55100 0.95630 -0.00800
C 	C 	0.51350 0.55910 0.04480 0.02400
C 	C 	0.44490 0.60820 0.09100 -0.33700
C 	C 	0.36610 0.65610 0.05220 0.34900
C 	C 	0.35460 0.65100 0.96710 -0.31500
C 	C 	0.42050 0.59970 0.91480 0.03500
C 	C 	0.58850 0.42210 0.93660 0.13400
C 	C 	0.64990 0.36990 0.89370 -0.35300
O 	O 	0.80460 0.20500 0.67490 -1.14700
O 	O 	0.25330 0.84420 0.00600 -0.93000
O 	O 	0.89610 0.45920 0.63830 -0.94300
O 	O 	0.61090 0.04500 0.63220 -0.98500
O 	O 	0.24290 0.65640 0.26780 -0.94300
O 	O 	0.69390 0.29430 0.59620 -1.17900
O 	O 	0.19540 0.79500 0.17490 -1.15000
O 	O 	0.74670 0.15580 0.50600 -0.90600
O 	O 	0.10390 0.54080 0.13830 -0.94500
O 	O 	0.38910 0.95500 0.13220 -0.99200
O 	O 	0.75710 0.34360 0.76780 -0.94200
O 	O 	0.30610 0.70570 0.09620 -1.16700
