data_crystal

_cell_length_a 7.52800
_cell_length_b 17.85300
_cell_length_c 23.75700
_cell_angle_alpha 92.53400
_cell_angle_beta  90.00000
_cell_angle_gamma 90.00000

_symmetry_space_group_name_	'P 1'
_symmetry_space_group_name_H-M	'P 1'

loop_
_symmetry_equiv_pos_as_xyz
  x,y,z

loop_
_atom_site_label
_atom_site_type_symbol
_atom_site_fract_x
_atom_site_fract_y
_atom_site_fract_z
_atom_site_charge
Zn	Zn	0.97374 0.42169 0.96843 1.19500
Zn	Zn	0.29499 0.49059 0.91270 1.22900
Zn	Zn	0.97374 0.07831 0.53157 1.19600
Zn	Zn	0.29499 0.00941 0.58730 1.22900
Zn	Zn	0.02626 0.57831 0.03157 1.19400
Zn	Zn	0.70501 0.50941 0.08730 1.22800
Zn	Zn	0.02626 0.92169 0.46843 1.19500
Zn	Zn	0.70501 0.99059 0.41270 1.22800
H 	H 	0.06680 0.50470 0.75810 0.06900
H 	H 	0.93460 0.50940 0.66970 0.26300
H 	H 	0.49480 0.41080 0.73080 0.16900
H 	H 	0.62430 0.41000 0.81950 -0.00500
H 	H 	0.16480 0.29840 0.57090 0.02800
H 	H 	0.27580 0.41820 0.59200 0.26100
H 	H 	0.74090 0.32660 0.64050 0.16800
H 	H 	0.63040 0.20740 0.61770 -0.01100
H 	H 	0.55600 0.60920 0.78570 0.07500
H 	H 	0.74560 0.67580 0.72890 0.23300
H 	H 	0.07830 0.71340 0.86070 0.22900
H 	H 	0.88860 0.64760 0.91740 -0.05000
H 	H 	0.06680 0.99530 0.74190 0.06900
H 	H 	0.93460 0.99060 0.83030 0.26700
H 	H 	0.49480 0.08920 0.76920 0.17000
H 	H 	0.62430 0.09000 0.68050 -0.00600
H 	H 	0.16480 0.20160 0.92910 0.02900
H 	H 	0.27580 0.08180 0.90800 0.26100
H 	H 	0.74090 0.17340 0.85950 0.16800
H 	H 	0.63040 0.29260 0.88230 -0.01100
H 	H 	0.55600 0.89080 0.71430 0.07500
H 	H 	0.74560 0.82420 0.77110 0.23300
H 	H 	0.07830 0.78660 0.63930 0.22600
H 	H 	0.88860 0.85240 0.58260 -0.04900
H 	H 	0.93320 0.49530 0.24190 0.06900
H 	H 	0.06540 0.49060 0.33030 0.26300
H 	H 	0.50520 0.58920 0.26920 0.16900
H 	H 	0.37570 0.59000 0.18050 -0.00500
H 	H 	0.83520 0.70160 0.42910 0.02800
H 	H 	0.72420 0.58180 0.40800 0.26100
H 	H 	0.25910 0.67340 0.35950 0.16800
H 	H 	0.36960 0.79260 0.38230 -0.01100
H 	H 	0.44400 0.39080 0.21430 0.07500
H 	H 	0.25440 0.32420 0.27110 0.23300
H 	H 	0.92170 0.28660 0.13930 0.22900
H 	H 	0.11140 0.35240 0.08260 -0.05000
H 	H 	0.93320 0.00470 0.25810 0.06900
H 	H 	0.06540 0.00940 0.16970 0.26700
H 	H 	0.50520 0.91080 0.23080 0.17000
H 	H 	0.37570 0.91000 0.31950 -0.00600
H 	H 	0.83520 0.79840 0.07090 0.02900
H 	H 	0.72420 0.91820 0.09200 0.26100
H 	H 	0.25910 0.82660 0.14050 0.16800
H 	H 	0.36960 0.70740 0.11770 -0.01100
H 	H 	0.44400 0.10920 0.28570 0.07500
H 	H 	0.25440 0.17580 0.22890 0.23300
H 	H 	0.92170 0.21340 0.36070 0.22600
H 	H 	0.11140 0.14760 0.41740 -0.04900
C 	C 	0.94590 0.45715 0.85415 0.42400
C 	C 	0.85870 0.45722 0.79725 -0.20500
C 	C 	0.94950 0.48610 0.75258 0.17600
C 	C 	0.87180 0.48836 0.69984 -0.27400
C 	C 	0.70140 0.45976 0.69114 0.36300
C 	C 	0.61110 0.43043 0.73631 -0.28500
C 	C 	0.68810 0.42955 0.78890 0.18100
C 	C 	0.60320 0.46163 0.63394 -0.50400
C 	C 	0.72850 0.47997 0.58484 0.96500
C 	C 	0.46440 0.52507 0.64025 0.96900
C 	C 	0.30890 0.16390 0.58039 0.43800
C 	C 	0.38470 0.24113 0.59326 -0.20900
C 	C 	0.28200 0.30414 0.58520 0.21100
C 	C 	0.34770 0.37551 0.59777 -0.27800
C 	C 	0.51980 0.38436 0.61884 0.38100
C 	C 	0.62350 0.32105 0.62628 -0.28900
C 	C 	0.55750 0.25010 0.61314 0.19300
C 	C 	0.57520 0.58321 0.89498 0.38600
C 	C 	0.70050 0.62370 0.85777 -0.19000
C 	C 	0.66090 0.63132 0.80126 0.20700
C 	C 	0.77370 0.67103 0.76755 -0.28300
C 	C 	0.92770 0.70411 0.78951 0.39200
C 	C 	0.97070 0.69343 0.84554 -0.30200
C 	C 	0.85810 0.65410 0.87912 0.22200
C 	C 	0.16480 0.80717 0.78234 0.97600
C 	C 	0.94590 0.04285 0.64585 0.42300
C 	C 	0.85870 0.04278 0.70275 -0.20700
C 	C 	0.94950 0.01390 0.74742 0.17700
C 	C 	0.87180 0.01164 0.80016 -0.28100
C 	C 	0.70140 0.04024 0.80886 0.36600
C 	C 	0.61110 0.06957 0.76369 -0.28700
C 	C 	0.68810 0.07045 0.71110 0.18200
C 	C 	0.60320 0.03837 0.86606 -0.50600
C 	C 	0.72850 0.02003 0.91516 0.96400
C 	C 	0.46440 0.97493 0.85975 0.97000
C 	C 	0.30890 0.33610 0.91961 0.43800
C 	C 	0.38470 0.25887 0.90674 -0.20900
C 	C 	0.28200 0.19586 0.91480 0.21200
C 	C 	0.34770 0.12449 0.90223 -0.27900
C 	C 	0.51980 0.11564 0.88116 0.38200
C 	C 	0.62350 0.17895 0.87372 -0.29000
C 	C 	0.55750 0.24990 0.88686 0.19300
C 	C 	0.57520 0.91679 0.60502 0.38600
C 	C 	0.70050 0.87630 0.64223 -0.18800
C 	C 	0.66090 0.86868 0.69874 0.20600
C 	C 	0.77370 0.82897 0.73245 -0.28200
C 	C 	0.92770 0.79589 0.71049 0.39100
C 	C 	0.97070 0.80657 0.65446 -0.29800
C 	C 	0.85810 0.84590 0.62088 0.22000
C 	C 	0.16480 0.69283 0.71766 0.97600
C 	C 	0.05410 0.54285 0.14585 0.42400
C 	C 	0.14130 0.54278 0.20275 -0.20500
C 	C 	0.05050 0.51390 0.24742 0.17600
C 	C 	0.12820 0.51164 0.30016 -0.27400
C 	C 	0.29860 0.54024 0.30886 0.36300
C 	C 	0.38890 0.56957 0.26369 -0.28500
C 	C 	0.31190 0.57045 0.21110 0.18100
C 	C 	0.39680 0.53837 0.36606 -0.50400
C 	C 	0.27150 0.52003 0.41516 0.96500
C 	C 	0.53560 0.47493 0.35975 0.96900
C 	C 	0.69110 0.83610 0.41961 0.43800
C 	C 	0.61530 0.75887 0.40674 -0.20900
C 	C 	0.71800 0.69586 0.41480 0.21100
C 	C 	0.65230 0.62449 0.40223 -0.27800
C 	C 	0.48020 0.61564 0.38116 0.38100
C 	C 	0.37650 0.67895 0.37372 -0.28900
C 	C 	0.44250 0.74990 0.38686 0.19300
C 	C 	0.42480 0.41679 0.10502 0.38600
C 	C 	0.29950 0.37630 0.14223 -0.19000
C 	C 	0.33910 0.36868 0.19874 0.20700
C 	C 	0.22630 0.32897 0.23245 -0.28300
C 	C 	0.07230 0.29589 0.21049 0.39200
C 	C 	0.02930 0.30657 0.15446 -0.30200
C 	C 	0.14190 0.34590 0.12088 0.22200
C 	C 	0.83520 0.19283 0.21766 0.97600
C 	C 	0.05410 0.95715 0.35415 0.42300
C 	C 	0.14130 0.95722 0.29725 -0.20700
C 	C 	0.05050 0.98610 0.25258 0.17700
C 	C 	0.12820 0.98836 0.19984 -0.28100
C 	C 	0.29860 0.95976 0.19114 0.36600
C 	C 	0.38890 0.93043 0.23631 -0.28700
C 	C 	0.31190 0.92955 0.28890 0.18200
C 	C 	0.39680 0.96163 0.13394 -0.50600
C 	C 	0.27150 0.97997 0.08484 0.96400
C 	C 	0.53560 0.02507 0.14025 0.97000
C 	C 	0.69110 0.66390 0.08039 0.43800
C 	C 	0.61530 0.74113 0.09326 -0.20900
C 	C 	0.71800 0.80414 0.08520 0.21200
C 	C 	0.65230 0.87551 0.09777 -0.27900
C 	C 	0.48020 0.88436 0.11884 0.38200
C 	C 	0.37650 0.82105 0.12628 -0.29000
C 	C 	0.44250 0.75010 0.11314 0.19300
C 	C 	0.42480 0.08321 0.39498 0.38600
C 	C 	0.29950 0.12370 0.35777 -0.18800
C 	C 	0.33910 0.13132 0.30126 0.20600
C 	C 	0.22630 0.17103 0.26755 -0.28200
C 	C 	0.07230 0.20411 0.28951 0.39100
C 	C 	0.02930 0.19343 0.34554 -0.29800
C 	C 	0.14190 0.15410 0.37912 0.22000
C 	C 	0.83520 0.30717 0.28234 0.97600
C 	C 	0.04450 0.75000 0.75000 -0.51500
C 	C 	0.95550 0.25000 0.25000 -0.51500
O 	O 	0.10150 0.48220 0.85704 -0.48200
O 	O 	0.85920 0.43274 0.89474 -0.48800
O 	O 	0.40750 0.10886 0.59030 -0.47100
O 	O 	0.15390 0.16016 0.56192 -0.47400
O 	O 	0.43140 0.56045 0.87173 -0.42400
O 	O 	0.61100 0.57532 0.94525 -0.32800
O 	O 	0.17470 0.49712 0.98621 -0.66600
O 	O 	0.10150 0.01780 0.64296 -0.48100
O 	O 	0.85920 0.06726 0.60526 -0.48800
O 	O 	0.40750 0.39114 0.90970 -0.47100
O 	O 	0.15390 0.33984 0.93808 -0.47400
O 	O 	0.43140 0.93955 0.62827 -0.42400
O 	O 	0.61100 0.92468 0.55475 -0.32800
O 	O 	0.17470 0.00288 0.51379 -0.66600
O 	O 	0.89850 0.51780 0.14296 -0.48200
O 	O 	0.14080 0.56726 0.10526 -0.48800
O 	O 	0.59250 0.89114 0.40970 -0.47100
O 	O 	0.84610 0.83984 0.43808 -0.47400
O 	O 	0.56860 0.43955 0.12827 -0.42400
O 	O 	0.38900 0.42468 0.05475 -0.32800
O 	O 	0.82530 0.50288 0.01379 -0.66600
O 	O 	0.89850 0.98220 0.35704 -0.48100
O 	O 	0.14080 0.93274 0.39474 -0.48800
O 	O 	0.59250 0.60886 0.09030 -0.47100
O 	O 	0.84610 0.66016 0.06192 -0.47400
O 	O 	0.56860 0.06045 0.37173 -0.42400
O 	O 	0.38900 0.07532 0.44525 -0.32800
O 	O 	0.82530 0.99712 0.48621 -0.66600
F 	F 	0.87020 0.43529 0.58247 -0.47900
F 	F 	0.78840 0.55098 0.58780 -0.41100
F 	F 	0.64620 0.47084 0.53501 -0.38600
F 	F 	0.38850 0.54195 0.59090 -0.38900
F 	F 	0.53570 0.58856 0.66133 -0.43200
F 	F 	0.33160 0.50725 0.67451 -0.48000
F 	F 	0.23920 0.85490 0.74836 -0.46300
F 	F 	0.29760 0.77480 0.81043 -0.43700
F 	F 	0.07080 0.84803 0.82081 -0.44900
F 	F 	0.87020 0.06471 0.91753 -0.48000
F 	F 	0.78840 0.94902 0.91220 -0.41000
F 	F 	0.64620 0.02916 0.96499 -0.38700
F 	F 	0.38850 0.95805 0.90910 -0.38800
F 	F 	0.53570 0.91144 0.83867 -0.43200
F 	F 	0.33160 0.99275 0.82549 -0.47900
F 	F 	0.23920 0.64510 0.75164 -0.46300
F 	F 	0.29760 0.72520 0.68957 -0.43700
F 	F 	0.07080 0.65197 0.67919 -0.45000
F 	F 	0.12980 0.56471 0.41753 -0.47900
F 	F 	0.21160 0.44902 0.41220 -0.41100
F 	F 	0.35380 0.52916 0.46499 -0.38600
F 	F 	0.61150 0.45805 0.40910 -0.38900
F 	F 	0.46430 0.41144 0.33867 -0.43200
F 	F 	0.66840 0.49275 0.32549 -0.48000
F 	F 	0.76080 0.14510 0.25164 -0.46300
F 	F 	0.70240 0.22520 0.18957 -0.43700
F 	F 	0.92920 0.15197 0.17919 -0.44900
F 	F 	0.12980 0.93529 0.08247 -0.48000
F 	F 	0.21160 0.05098 0.08780 -0.41000
F 	F 	0.35380 0.97084 0.03501 -0.38700
F 	F 	0.61150 0.04195 0.09090 -0.38800
F 	F 	0.46430 0.08856 0.16133 -0.43200
F 	F 	0.66840 0.00725 0.17451 -0.47900
F 	F 	0.76080 0.35490 0.24836 -0.46300
F 	F 	0.70240 0.27480 0.31043 -0.43700
F 	F 	0.92920 0.34803 0.32081 -0.45000
