data_crystal

_cell_length_a 9.88500
_cell_length_b 10.02000
_cell_length_c 16.43800
_cell_angle_alpha 90.00000
_cell_angle_beta  90.00000
_cell_angle_gamma 90.00000

_symmetry_space_group_name_	'P 1'
_symmetry_space_group_name_H-M	'P 1'

loop_
_symmetry_equiv_pos_as_xyz
  x,y,z

loop_
_atom_site_label
_atom_site_type_symbol
_atom_site_fract_x
_atom_site_fract_y
_atom_site_fract_z
_atom_site_charge
Zn	Zn	0.64380 0.59660 0.79665 1.23600
Zn	Zn	0.85620 0.90340 0.79665 1.23500
Zn	Zn	0.35620 0.09660 0.70335 1.23600
Zn	Zn	0.14380 0.40340 0.70335 1.23600
Zn	Zn	0.35620 0.40340 0.20335 1.23500
Zn	Zn	0.14380 0.09660 0.20335 1.23400
Zn	Zn	0.64380 0.90340 0.29665 1.23500
Zn	Zn	0.85620 0.59660 0.29665 1.23500
P 	P 	0.92710 0.63730 0.71280 0.43800
P 	P 	0.57290 0.86270 0.71280 0.43800
P 	P 	0.07290 0.13730 0.78720 0.43500
P 	P 	0.42710 0.36270 0.78720 0.43800
P 	P 	0.07290 0.36270 0.28720 0.43800
P 	P 	0.42710 0.13730 0.28720 0.43800
P 	P 	0.92710 0.86270 0.21280 0.43500
P 	P 	0.57290 0.63730 0.21280 0.43800
C 	C 	0.85900 0.58800 0.61780 -0.06500
C 	C 	0.91600 0.65900 0.54520 -0.00400
C 	C 	0.63900 0.61100 0.96160 0.32300
C 	C 	0.64100 0.91200 0.61780 -0.06600
C 	C 	0.58400 0.84100 0.54520 -0.00300
C 	C 	0.86100 0.88900 0.96160 0.32300
C 	C 	0.14100 0.08800 0.88220 -0.06600
C 	C 	0.08400 0.15900 0.95480 -0.00400
C 	C 	0.36100 0.11100 0.53840 0.32300
C 	C 	0.35900 0.41200 0.88220 -0.06600
C 	C 	0.41600 0.34100 0.95480 -0.00300
C 	C 	0.13900 0.38900 0.53840 0.32300
C 	C 	0.14100 0.41200 0.38220 -0.06500
C 	C 	0.08400 0.34100 0.45480 -0.00400
C 	C 	0.36100 0.38900 0.03840 0.32300
C 	C 	0.35900 0.08800 0.38220 -0.06600
C 	C 	0.41600 0.15900 0.45480 -0.00300
C 	C 	0.13900 0.11100 0.03840 0.32300
C 	C 	0.85900 0.91200 0.11780 -0.06600
C 	C 	0.91600 0.84100 0.04520 -0.00400
C 	C 	0.63900 0.88900 0.46160 0.32300
C 	C 	0.64100 0.58800 0.11780 -0.06600
C 	C 	0.58400 0.65900 0.04520 -0.00300
C 	C 	0.86100 0.61100 0.46160 0.32300
O 	O 	0.83800 0.58140 0.77980 -0.43900
O 	O 	0.57110 0.41740 0.78090 -0.39000
O 	O 	0.56640 0.71070 0.71240 -0.40900
O 	O 	0.58400 0.66600 0.90130 -0.42500
O 	O 	0.72700 0.52600 0.95860 -0.26300
O 	O 	0.66200 0.91860 0.77980 -0.44000
O 	O 	0.92890 0.08260 0.78090 -0.38600
O 	O 	0.93360 0.78930 0.71240 -0.41000
O 	O 	0.91600 0.83400 0.90130 -0.42600
O 	O 	0.77300 0.97400 0.95860 -0.26400
O 	O 	0.16200 0.08140 0.72020 -0.44000
O 	O 	0.42890 0.91740 0.71910 -0.38900
O 	O 	0.43360 0.21070 0.78760 -0.40900
O 	O 	0.41600 0.16600 0.59870 -0.42500
O 	O 	0.27300 0.02600 0.54140 -0.26400
O 	O 	0.33800 0.41860 0.72020 -0.43900
O 	O 	0.07110 0.58260 0.71910 -0.38900
O 	O 	0.06640 0.28930 0.78760 -0.40900
O 	O 	0.08400 0.33400 0.59870 -0.42600
O 	O 	0.22700 0.47400 0.54140 -0.26300
O 	O 	0.16200 0.41860 0.22020 -0.43900
O 	O 	0.42890 0.58260 0.21910 -0.39000
O 	O 	0.43360 0.28930 0.28760 -0.40900
O 	O 	0.41600 0.33400 0.09870 -0.42500
O 	O 	0.27300 0.47400 0.04140 -0.26300
O 	O 	0.33800 0.08140 0.22020 -0.44000
O 	O 	0.07110 0.91740 0.21910 -0.38600
O 	O 	0.06640 0.21070 0.28760 -0.41000
O 	O 	0.08400 0.16600 0.09870 -0.42600
O 	O 	0.22700 0.02600 0.04140 -0.26400
O 	O 	0.83800 0.91860 0.27980 -0.44000
O 	O 	0.57110 0.08260 0.28090 -0.38900
O 	O 	0.56640 0.78930 0.21240 -0.40900
O 	O 	0.58400 0.83400 0.40130 -0.42500
O 	O 	0.72700 0.97400 0.45860 -0.26400
O 	O 	0.66200 0.58140 0.27980 -0.43900
O 	O 	0.92890 0.41740 0.28090 -0.38900
O 	O 	0.93360 0.71070 0.21240 -0.40900
O 	O 	0.91600 0.66600 0.40130 -0.42600
O 	O 	0.77300 0.52600 0.45860 -0.26300
