data_crystal

_cell_length_a 9.42720
_cell_length_b 18.66200
_cell_length_c 20.46100
_cell_angle_alpha 90.00000
_cell_angle_beta  90.00000
_cell_angle_gamma 90.00000

_symmetry_space_group_name_	'P 1'
_symmetry_space_group_name_H-M	'P 1'

loop_
_symmetry_equiv_pos_as_xyz
  x,y,z

loop_
_atom_site_label
_atom_site_type_symbol
_atom_site_fract_x
_atom_site_fract_y
_atom_site_fract_z
_atom_site_charge
Zn	Zn	0.74652 0.36553 0.33262 1.22100
Zn	Zn	0.44865 0.27238 0.38352 1.21000
Zn	Zn	0.64399 0.67736 0.07596 1.21900
Zn	Zn	0.74652 0.63447 0.66738 1.22200
Zn	Zn	0.44865 0.72762 0.61648 1.21100
Zn	Zn	0.64399 0.32264 0.92404 1.21900
Zn	Zn	0.24652 0.86553 0.16738 1.22500
Zn	Zn	0.94865 0.77238 0.11648 1.19800
Zn	Zn	0.14399 0.17736 0.42404 1.22400
Zn	Zn	0.24652 0.13447 0.83262 1.22500
Zn	Zn	0.94865 0.22762 0.88352 1.19800
Zn	Zn	0.14399 0.82264 0.57596 1.22400
H 	H 	0.69000 0.24250 0.36300 0.31800
H 	H 	0.18000 0.28600 0.37900 0.31200
H 	H 	0.18850 0.23260 0.07130 0.10400
H 	H 	0.53000 0.52770 0.23050 0.02000
H 	H 	0.15310 0.60200 0.17250 0.00600
H 	H 	0.04410 0.51410 0.23410 0.09000
H 	H 	0.17490 0.43290 0.29300 0.02200
H 	H 	0.23850 0.42860 0.42640 0.08700
H 	H 	0.71650 0.09650 0.45610 0.02200
H 	H 	0.99500 0.28620 0.26630 0.03800
H 	H 	0.04020 0.36580 0.08800 0.18600
H 	H 	0.85300 0.44160 0.10720 -0.01700
H 	H 	0.73490 0.43560 0.20610 0.04700
H 	H 	0.12270 0.21910 0.17550 0.08900
H 	H 	0.22880 0.27960 0.19500 0.08300
H 	H 	0.38520 0.25720 0.99960 0.01900
H 	H 	0.32710 0.37540 0.15890 0.06700
H 	H 	0.51430 0.44490 0.12790 0.05100
H 	H 	0.63670 0.41770 0.03370 0.01100
H 	H 	0.69000 0.75750 0.63700 0.31800
H 	H 	0.18000 0.71400 0.62100 0.31200
H 	H 	0.18850 0.76740 0.92870 0.10400
H 	H 	0.53000 0.47230 0.76950 0.02000
H 	H 	0.15310 0.39800 0.82750 0.00600
H 	H 	0.04410 0.48590 0.76590 0.09000
H 	H 	0.17490 0.56710 0.70700 0.02200
H 	H 	0.23850 0.57140 0.57360 0.08700
H 	H 	0.71650 0.90350 0.54390 0.02200
H 	H 	0.99500 0.71380 0.73370 0.03800
H 	H 	0.04020 0.63420 0.91200 0.18700
H 	H 	0.85300 0.55840 0.89280 -0.01700
H 	H 	0.73490 0.56440 0.79390 0.04700
H 	H 	0.12270 0.78090 0.82450 0.09000
H 	H 	0.22880 0.72040 0.80500 0.08300
H 	H 	0.38520 0.74280 0.00040 0.01900
H 	H 	0.32710 0.62460 0.84110 0.06600
H 	H 	0.51430 0.55510 0.87210 0.05100
H 	H 	0.63670 0.58230 0.96630 0.01100
H 	H 	0.19000 0.74250 0.13700 0.31700
H 	H 	0.68000 0.78600 0.12100 0.31300
H 	H 	0.68850 0.73260 0.42870 0.10200
H 	H 	0.03000 0.02770 0.26950 0.09400
H 	H 	0.65310 0.10200 0.32750 0.02700
H 	H 	0.54410 0.01410 0.26590 0.05300
H 	H 	0.67490 0.93290 0.20700 0.04200
H 	H 	0.73850 0.92860 0.07360 0.02200
H 	H 	0.21650 0.59650 0.04390 0.08600
H 	H 	0.49500 0.78620 0.23370 0.00400
H 	H 	0.54020 0.86580 0.41200 0.05500
H 	H 	0.35300 0.94160 0.39280 0.06100
H 	H 	0.23490 0.93560 0.29390 0.01000
H 	H 	0.62270 0.71910 0.32450 0.04200
H 	H 	0.72880 0.77960 0.30500 0.04000
H 	H 	0.88520 0.75720 0.50040 0.01500
H 	H 	0.82710 0.87540 0.34110 0.02100
H 	H 	0.01430 0.94490 0.37210 0.15800
H 	H 	0.13670 0.91770 0.46630 -0.03400
H 	H 	0.19000 0.25750 0.86300 0.31700
H 	H 	0.68000 0.21400 0.87900 0.31300
H 	H 	0.68850 0.26740 0.57130 0.10200
H 	H 	0.03000 0.97230 0.73050 0.09400
H 	H 	0.65310 0.89800 0.67250 0.02900
H 	H 	0.54410 0.98590 0.73410 0.05200
H 	H 	0.67490 0.06710 0.79300 0.04400
H 	H 	0.73850 0.07140 0.92640 0.02300
H 	H 	0.21650 0.40350 0.95610 0.08600
H 	H 	0.49500 0.21380 0.76630 0.00400
H 	H 	0.54020 0.13420 0.58800 0.05500
H 	H 	0.35300 0.05840 0.60720 0.06000
H 	H 	0.23490 0.06440 0.70610 0.01000
H 	H 	0.62270 0.28090 0.67550 0.04200
H 	H 	0.72880 0.22040 0.69500 0.04000
H 	H 	0.88520 0.24280 0.49960 0.01500
H 	H 	0.82710 0.12460 0.65890 0.02100
H 	H 	0.01430 0.05510 0.62790 0.15700
H 	H 	0.13670 0.08230 0.53370 -0.03400
H 	H 	0.86670 0.50000 0.50000 0.12000
H 	H 	0.35770 0.50000 0.50000 -0.00700
H 	H 	0.36670 0.00000 -0.00000 0.04200
H 	H 	0.85770 0.00000 -0.00000 0.04400
H 	H 	0.34920 0.00000 0.50000 0.02700
H 	H 	0.83990 0.00000 0.50000 0.07000
H 	H 	0.84920 0.50000 -0.00000 0.11300
H 	H 	0.33990 0.50000 -0.00000 0.01900
C 	C 	0.45740 0.41960 0.30540 0.42100
C 	C 	0.36840 0.47260 0.26870 -0.16700
C 	C 	0.43150 0.52490 0.23130 0.08700
C 	C 	0.35310 0.57360 0.19480 -0.15000
C 	C 	0.20750 0.56960 0.19620 0.07200
C 	C 	0.14260 0.51680 0.23330 -0.14100
C 	C 	0.22040 0.46830 0.26890 0.07600
C 	C 	0.42830 0.62670 0.15170 0.35800
C 	C 	0.96060 0.41300 0.40660 0.18600
C 	C 	0.04030 0.45720 0.45540 0.10800
C 	C 	0.18830 0.45710 0.45560 -0.15200
C 	C 	0.43580 0.12050 0.44730 0.42000
C 	C 	0.52060 0.05790 0.47350 -0.15300
C 	C 	0.66720 0.05790 0.47360 0.06300
C 	C 	0.96440 0.31700 0.23340 -0.15200
C 	C 	0.03480 0.31680 0.17390 0.24800
C 	C 	0.99270 0.36400 0.12790 -0.35500
C 	C 	0.88160 0.40910 0.13900 0.12400
C 	C 	0.81210 0.40570 0.19840 -0.08900
C 	C 	0.15520 0.26680 0.16400 -0.20300
C 	C 	0.41270 0.29470 0.02680 -0.02500
C 	C 	0.33460 0.30650 0.08390 0.07400
C 	C 	0.37620 0.36440 0.12080 -0.08800
C 	C 	0.48740 0.40580 0.10260 -0.04500
C 	C 	0.56030 0.38930 0.04610 0.01600
C 	C 	0.45740 0.58040 0.69460 0.42100
C 	C 	0.36840 0.52740 0.73130 -0.16700
C 	C 	0.43150 0.47510 0.76870 0.08700
C 	C 	0.35310 0.42640 0.80520 -0.15000
C 	C 	0.20750 0.43040 0.80380 0.07200
C 	C 	0.14260 0.48320 0.76670 -0.14100
C 	C 	0.22040 0.53170 0.73110 0.07600
C 	C 	0.42830 0.37330 0.84830 0.35800
C 	C 	0.96060 0.58700 0.59340 0.18600
C 	C 	0.04030 0.54280 0.54460 0.10800
C 	C 	0.18830 0.54290 0.54440 -0.15200
C 	C 	0.43580 0.87950 0.55270 0.42000
C 	C 	0.52060 0.94210 0.52650 -0.15100
C 	C 	0.66720 0.94210 0.52640 0.06500
C 	C 	0.96440 0.68300 0.76660 -0.15300
C 	C 	0.03480 0.68320 0.82610 0.25000
C 	C 	0.99270 0.63600 0.87210 -0.35700
C 	C 	0.88160 0.59090 0.86100 0.12600
C 	C 	0.81210 0.59430 0.80160 -0.08900
C 	C 	0.15520 0.73320 0.83600 -0.20400
C 	C 	0.41270 0.70530 0.97320 -0.02300
C 	C 	0.33460 0.69350 0.91610 0.07300
C 	C 	0.37620 0.63560 0.87920 -0.08800
C 	C 	0.48740 0.59420 0.89740 -0.04500
C 	C 	0.56030 0.61070 0.95390 0.01600
C 	C 	0.95740 0.91960 0.19460 0.34200
C 	C 	0.86840 0.97260 0.23130 -0.08300
C 	C 	0.93150 0.02490 0.26870 -0.06400
C 	C 	0.85310 0.07360 0.30520 -0.07100
C 	C 	0.70750 0.06960 0.30380 -0.00300
C 	C 	0.64260 0.01680 0.26670 -0.07600
C 	C 	0.72040 0.96830 0.23110 0.00400
C 	C 	0.92830 0.12670 0.34830 0.28200
C 	C 	0.46060 0.91300 0.09340 0.33300
C 	C 	0.54030 0.95720 0.04460 -0.10600
C 	C 	0.68830 0.95710 0.04440 0.01800
C 	C 	0.93580 0.62050 0.05270 0.27000
C 	C 	0.02060 0.55790 0.02650 0.06800
C 	C 	0.16720 0.55790 0.02640 -0.11300
C 	C 	0.46440 0.81700 0.26660 0.00400
C 	C 	0.53480 0.81680 0.32610 0.01200
C 	C 	0.49270 0.86400 0.37210 -0.04500
C 	C 	0.38160 0.90910 0.36100 -0.06900
C 	C 	0.31210 0.90570 0.30160 0.02700
C 	C 	0.65520 0.76680 0.33600 -0.07200
C 	C 	0.91270 0.79470 0.47320 -0.03500
C 	C 	0.83460 0.80650 0.41610 0.03200
C 	C 	0.87620 0.86440 0.37920 0.03100
C 	C 	0.98740 0.90580 0.39740 -0.27100
C 	C 	0.06030 0.88930 0.45390 0.16500
C 	C 	0.95740 0.08040 0.80540 0.34200
C 	C 	0.86840 0.02740 0.76870 -0.08500
C 	C 	0.93150 0.97510 0.73130 -0.06100
C 	C 	0.85310 0.92640 0.69480 -0.07000
C 	C 	0.70750 0.93040 0.69620 -0.00600
C 	C 	0.64260 0.98320 0.73330 -0.06800
C 	C 	0.72040 0.03170 0.76890 -0.00200
C 	C 	0.92830 0.87330 0.65170 0.28100
C 	C 	0.46060 0.08700 0.90660 0.33300
C 	C 	0.54030 0.04280 0.95540 -0.10700
C 	C 	0.68830 0.04290 0.95560 0.01700
C 	C 	0.93580 0.37950 0.94730 0.26900
C 	C 	0.02060 0.44210 0.97350 0.06900
C 	C 	0.16720 0.44210 0.97360 -0.11300
C 	C 	0.46440 0.18300 0.73340 0.00400
C 	C 	0.53480 0.18320 0.67390 0.01200
C 	C 	0.49270 0.13600 0.62790 -0.04600
C 	C 	0.38160 0.09090 0.63900 -0.06900
C 	C 	0.31210 0.09430 0.69840 0.02700
C 	C 	0.65520 0.23320 0.66400 -0.07200
C 	C 	0.91270 0.20530 0.52680 -0.03500
C 	C 	0.83460 0.19350 0.58390 0.03200
C 	C 	0.87620 0.13560 0.62080 0.03100
C 	C 	0.98740 0.09420 0.60260 -0.27100
C 	C 	0.06030 0.11070 0.54610 0.16500
C 	C 	0.96540 0.50000 0.50000 -0.21900
C 	C 	0.25910 0.50000 0.50000 0.07100
C 	C 	0.46540 0.00000 -0.00000 0.03300
C 	C 	0.75910 0.00000 -0.00000 -0.10000
C 	C 	0.44780 0.00000 0.50000 0.07300
C 	C 	0.74130 0.00000 0.50000 -0.12800
C 	C 	0.94780 0.50000 -0.00000 -0.18700
C 	C 	0.24130 0.50000 -0.00000 0.04300
N 	N 	0.85420 0.36000 0.24500 -0.19900
N 	N 	0.22050 0.26250 0.09970 -0.16600
N 	N 	0.52450 0.33400 0.00900 -0.23300
N 	N 	0.85420 0.64000 0.75500 -0.19800
N 	N 	0.22050 0.73750 0.90030 -0.16600
N 	N 	0.52450 0.66600 0.99100 -0.23300
N 	N 	0.35420 0.86000 0.25500 -0.24100
N 	N 	0.72050 0.76250 0.40030 -0.17900
N 	N 	0.02450 0.83400 0.49100 -0.23800
N 	N 	0.35420 0.14000 0.74500 -0.24100
N 	N 	0.72050 0.23750 0.59970 -0.17900
N 	N 	0.02450 0.16600 0.50900 -0.23800
O 	O 	0.58930 0.43000 0.30400 -0.48700
O 	O 	0.39780 0.36980 0.33480 -0.48400
O 	O 	0.55870 0.61190 0.13940 -0.46500
O 	O 	0.36790 0.67890 0.12940 -0.37800
O 	O 	0.83330 0.43320 0.39450 -0.42200
O 	O 	0.01600 0.36050 0.38100 -0.30300
O 	O 	0.50190 0.17250 0.42620 -0.48700
O 	O 	0.30260 0.11380 0.45010 -0.48800
O 	O 	0.65250 0.28394 0.36370 -0.81500
O 	O 	0.24150 0.25960 0.39710 -0.80800
O 	O 	0.58930 0.57000 0.69600 -0.48700
O 	O 	0.39780 0.63020 0.66520 -0.48400
O 	O 	0.55870 0.38810 0.86060 -0.46500
O 	O 	0.36790 0.32110 0.87060 -0.37800
O 	O 	0.83330 0.56680 0.60550 -0.42200
O 	O 	0.01600 0.63950 0.61900 -0.30200
O 	O 	0.50190 0.82750 0.57380 -0.48700
O 	O 	0.30260 0.88620 0.54990 -0.48700
O 	O 	0.65250 0.71606 0.63630 -0.81500
O 	O 	0.24150 0.74040 0.60290 -0.80800
O 	O 	0.08930 0.93000 0.19600 -0.43800
O 	O 	0.89780 0.86980 0.16520 -0.47100
O 	O 	0.05870 0.11190 0.36060 -0.42300
O 	O 	0.86790 0.17890 0.37060 -0.36800
O 	O 	0.33330 0.93320 0.10550 -0.44600
O 	O 	0.51600 0.86050 0.11900 -0.37500
O 	O 	0.00190 0.67250 0.07380 -0.41700
O 	O 	0.80260 0.61380 0.04990 -0.45700
O 	O 	0.15250 0.78394 0.13630 -0.79900
O 	O 	0.74150 0.75960 0.10290 -0.81800
O 	O 	0.08930 0.07000 0.80400 -0.43900
O 	O 	0.89780 0.13020 0.83480 -0.47100
O 	O 	0.05870 0.88810 0.63940 -0.42200
O 	O 	0.86790 0.82110 0.62940 -0.36700
O 	O 	0.33330 0.06680 0.89450 -0.44700
O 	O 	0.51600 0.13950 0.88100 -0.37600
O 	O 	0.00190 0.32750 0.92620 -0.41600
O 	O 	0.80260 0.38620 0.95010 -0.45700
O 	O 	0.15250 0.21606 0.86370 -0.79900
O 	O 	0.74150 0.24040 0.89710 -0.81800
