data_crystal

_cell_length_a 16.99100
_cell_length_b 16.99100
_cell_length_c 16.99100
_cell_angle_alpha 90.00000
_cell_angle_beta  90.00000
_cell_angle_gamma 90.00000

_symmetry_space_group_name_	'P 1'
_symmetry_space_group_name_H-M	'P 1'

loop_
_symmetry_equiv_pos_as_xyz
  x,y,z

loop_
_atom_site_label
_atom_site_type_symbol
_atom_site_fract_x
_atom_site_fract_y
_atom_site_fract_z
_atom_site_charge
Zn	Zn	0.50000 -0.00000 0.75000 1.13800
Zn	Zn	-0.00000 0.50000 0.25000 1.13700
Zn	Zn	0.50000 -0.00000 0.25000 1.13500
Zn	Zn	-0.00000 0.50000 0.75000 1.13700
Zn	Zn	0.75000 0.50000 -0.00000 1.13600
Zn	Zn	0.50000 0.25000 -0.00000 1.13800
Zn	Zn	0.25000 0.50000 -0.00000 1.13700
Zn	Zn	0.50000 0.75000 -0.00000 1.13900
Zn	Zn	-0.00000 0.75000 0.50000 1.14000
Zn	Zn	-0.00000 0.25000 0.50000 1.13700
Zn	Zn	0.25000 -0.00000 0.50000 1.13700
Zn	Zn	0.75000 -0.00000 0.50000 1.13700
H 	H 	0.37770 0.85890 0.72340 -0.00700
H 	H 	0.85890 0.62230 0.27660 -0.00600
H 	H 	0.62230 0.14110 0.72340 -0.00400
H 	H 	0.54130 0.92020 0.57430 0.30900
H 	H 	0.59420 0.87720 0.63640 0.29700
H 	H 	0.62760 0.89610 0.55250 0.29100
H 	H 	0.14110 0.37770 0.27660 -0.00900
H 	H 	0.92020 0.45870 0.42570 0.30900
H 	H 	0.87720 0.40580 0.36360 0.29600
H 	H 	0.89610 0.37240 0.44750 0.29100
H 	H 	0.37770 0.14110 0.27660 -0.00700
H 	H 	0.14110 0.62230 0.72340 -0.00400
H 	H 	0.62230 0.85890 0.27660 -0.00400
H 	H 	0.54130 0.07980 0.42570 0.13000
H 	H 	0.59420 0.12280 0.36360 0.14600
H 	H 	0.62760 0.10390 0.44750 0.12900
H 	H 	0.85890 0.37770 0.72340 -0.00800
H 	H 	0.07980 0.45870 0.57430 0.12900
H 	H 	0.12280 0.40580 0.63640 0.14600
H 	H 	0.10390 0.37240 0.55250 0.12900
H 	H 	0.72340 0.37770 0.85890 -0.00400
H 	H 	0.37770 0.27660 0.14110 -0.00900
H 	H 	0.45870 0.42570 0.92020 0.31000
H 	H 	0.40580 0.36360 0.87720 0.29700
H 	H 	0.37240 0.44750 0.89610 0.29100
H 	H 	0.27660 0.62230 0.85890 -0.00700
H 	H 	0.62230 0.72340 0.14110 -0.00700
H 	H 	0.54130 0.57430 0.92020 0.31000
H 	H 	0.59420 0.63640 0.87720 0.29800
H 	H 	0.62760 0.55250 0.89610 0.29100
H 	H 	0.72340 0.62230 0.14110 -0.00400
H 	H 	0.62230 0.27660 0.85890 -0.00700
H 	H 	0.54130 0.42570 0.07980 0.12700
H 	H 	0.59420 0.36360 0.12280 0.14500
H 	H 	0.62760 0.44750 0.10390 0.12700
H 	H 	0.27660 0.37770 0.14110 -0.00700
H 	H 	0.37770 0.72340 0.85890 -0.00300
H 	H 	0.45870 0.57430 0.07980 0.12700
H 	H 	0.40580 0.63640 0.12280 0.14500
H 	H 	0.37240 0.55250 0.10390 0.12800
H 	H 	0.85890 0.72340 0.37770 -0.00700
H 	H 	0.07980 0.57430 0.45870 0.12500
H 	H 	0.12280 0.63640 0.40580 0.14400
H 	H 	0.10390 0.55250 0.37240 0.12700
H 	H 	0.85890 0.27660 0.62230 -0.00700
H 	H 	0.27660 0.14110 0.37770 -0.00700
H 	H 	0.42570 0.92020 0.45870 0.30700
H 	H 	0.36360 0.87720 0.40580 0.29500
H 	H 	0.44750 0.89610 0.37240 0.29000
H 	H 	0.14110 0.72340 0.62230 -0.00700
H 	H 	0.92020 0.57430 0.54130 0.30700
H 	H 	0.87720 0.63640 0.59420 0.29600
H 	H 	0.89610 0.55250 0.62760 0.29100
H 	H 	0.72340 0.85890 0.37770 -0.00400
H 	H 	0.14110 0.27660 0.37770 -0.00900
H 	H 	0.27660 0.85890 0.62230 -0.00300
H 	H 	0.42570 0.07980 0.54130 0.12500
H 	H 	0.36360 0.12280 0.59420 0.14400
H 	H 	0.44750 0.10390 0.62760 0.12600
H 	H 	0.72340 0.14110 0.62230 -0.00400
H 	H 	0.87770 0.35890 0.22340 -0.00300
H 	H 	0.95870 0.57980 0.07430 0.23400
H 	H 	0.90580 0.62280 0.13640 0.23500
H 	H 	0.87240 0.60390 0.05250 0.19600
H 	H 	0.35890 0.12230 0.77660 -0.01400
H 	H 	0.12230 0.64110 0.22340 -0.01600
H 	H 	0.04130 0.42020 0.07430 0.09800
H 	H 	0.09420 0.37720 0.13640 0.13800
H 	H 	0.12760 0.39610 0.05250 0.11000
H 	H 	0.64110 0.87770 0.77660 0.00800
H 	H 	0.42020 0.95870 0.92570 0.32900
H 	H 	0.37720 0.90580 0.86360 0.29200
H 	H 	0.39610 0.87240 0.94750 0.29700
H 	H 	0.87770 0.64110 0.77660 0.01200
H 	H 	0.95870 0.42020 0.92570 0.33000
H 	H 	0.90580 0.37720 0.86360 0.29200
H 	H 	0.87240 0.39610 0.94750 0.29800
H 	H 	0.64110 0.12230 0.22340 -0.01800
H 	H 	0.12230 0.35890 0.77660 -0.01600
H 	H 	0.35890 0.87770 0.22340 0.00100
H 	H 	0.22340 0.87770 0.35890 -0.00300
H 	H 	0.87770 0.77660 0.64110 0.00800
H 	H 	0.95870 0.92570 0.42020 0.32900
H 	H 	0.90580 0.86360 0.37720 0.29200
H 	H 	0.87240 0.94750 0.39610 0.29700
H 	H 	0.77660 0.12230 0.35890 -0.01500
H 	H 	0.12230 0.22340 0.64110 -0.01600
H 	H 	0.04130 0.07430 0.42020 0.10000
H 	H 	0.09420 0.13640 0.37720 0.13800
H 	H 	0.12760 0.05250 0.39610 0.11100
H 	H 	0.22340 0.12230 0.64110 -0.01800
H 	H 	0.12230 0.77660 0.35890 -0.01600
H 	H 	0.04130 0.92570 0.57980 0.21100
H 	H 	0.09420 0.86360 0.62280 0.21900
H 	H 	0.12760 0.94750 0.60390 0.23400
H 	H 	0.77660 0.87770 0.64110 0.01200
H 	H 	0.87770 0.22340 0.35890 0.00100
H 	H 	0.95870 0.07430 0.57980 0.23700
H 	H 	0.90580 0.13640 0.62280 0.23600
H 	H 	0.87240 0.05250 0.60390 0.19700
H 	H 	0.35890 0.22340 0.87770 -0.00300
H 	H 	0.57980 0.07430 0.95870 0.23500
H 	H 	0.62280 0.13640 0.90580 0.23600
H 	H 	0.60390 0.05250 0.87240 0.19600
H 	H 	0.35890 0.77660 0.12230 -0.01700
H 	H 	0.57980 0.92570 0.04130 0.21400
H 	H 	0.62280 0.86360 0.09420 0.22000
H 	H 	0.60390 0.94750 0.12760 0.23500
H 	H 	0.77660 0.64110 0.87770 0.01200
H 	H 	0.64110 0.22340 0.12230 -0.01800
H 	H 	0.42020 0.07430 0.04130 0.09700
H 	H 	0.37720 0.13640 0.09420 0.13700
H 	H 	0.39610 0.05250 0.12760 0.11100
H 	H 	0.22340 0.35890 0.87770 0.00100
H 	H 	0.07430 0.57980 0.95870 0.23300
H 	H 	0.13640 0.62280 0.90580 0.23500
H 	H 	0.05250 0.60390 0.87240 0.19500
H 	H 	0.64110 0.77660 0.87770 0.00800
H 	H 	0.77660 0.35890 0.12230 -0.01400
H 	H 	0.22340 0.64110 0.12230 -0.01600
C 	C 	0.37705 0.00790 0.62295 0.01500
C 	C 	0.36851 0.89914 0.68750 -0.01200
C 	C 	0.40610 0.08550 0.59390 -0.53200
C 	C 	0.00790 0.62295 0.37705 0.01500
C 	C 	0.89914 0.63149 0.31250 -0.01300
C 	C 	0.08550 0.59390 0.40610 -0.53200
C 	C 	0.62295 0.99210 0.62295 0.49300
C 	C 	0.63149 0.10086 0.68750 -0.02800
C 	C 	0.59390 0.91450 0.59390 -1.02000
C 	C 	0.99210 0.37705 0.37705 0.49000
C 	C 	0.10086 0.36851 0.31250 -0.03300
C 	C 	0.91450 0.40610 0.40610 -1.01900
C 	C 	0.37705 0.99210 0.37705 0.48700
C 	C 	0.36851 0.10086 0.31250 -0.03200
C 	C 	0.40610 0.91450 0.40610 -1.01700
C 	C 	0.99210 0.62295 0.62295 0.49000
C 	C 	0.10086 0.63149 0.68750 -0.02800
C 	C 	0.91450 0.59390 0.59390 -1.01800
C 	C 	0.62295 0.00790 0.37705 0.02300
C 	C 	0.63149 0.89914 0.31250 -0.01300
C 	C 	0.59390 0.08550 0.40610 -0.53800
C 	C 	0.00790 0.37705 0.62295 0.02300
C 	C 	0.89914 0.36851 0.68750 -0.01300
C 	C 	0.08550 0.40610 0.59390 -0.53800
C 	C 	0.62295 0.37705 0.00790 0.01900
C 	C 	0.68750 0.36851 0.89914 -0.01500
C 	C 	0.59390 0.40610 0.08550 -0.53600
C 	C 	0.37705 0.37705 0.99210 0.48900
C 	C 	0.36851 0.31250 0.10086 -0.03200
C 	C 	0.40610 0.40610 0.91450 -1.02100
C 	C 	0.37705 0.62295 0.00790 0.01900
C 	C 	0.31250 0.63149 0.89914 -0.01400
C 	C 	0.40610 0.59390 0.08550 -0.53600
C 	C 	0.62295 0.62295 0.99210 0.49200
C 	C 	0.63149 0.68750 0.10086 -0.02700
C 	C 	0.59390 0.59390 0.91450 -1.02200
C 	C 	0.68750 0.63149 0.10086 -0.02800
C 	C 	0.63149 0.31250 0.89914 -0.01100
C 	C 	0.31250 0.36851 0.10086 -0.03300
C 	C 	0.36851 0.68750 0.89914 -0.01200
C 	C 	0.89914 0.68750 0.36851 -0.01300
C 	C 	0.89914 0.31250 0.63149 -0.01300
C 	C 	0.31250 0.10086 0.36851 -0.03200
C 	C 	0.10086 0.68750 0.63149 -0.02800
C 	C 	0.68750 0.89914 0.36851 -0.01300
C 	C 	0.10086 0.31250 0.36851 -0.03300
C 	C 	0.31250 0.89914 0.63149 -0.01400
C 	C 	0.68750 0.10086 0.63149 -0.02700
C 	C 	0.87705 0.50790 0.12295 0.25800
C 	C 	0.86851 0.39914 0.18750 -0.01500
C 	C 	0.90610 0.58550 0.09390 -0.78800
C 	C 	0.50790 0.12295 0.87705 0.25600
C 	C 	0.39914 0.13149 0.81250 -0.02900
C 	C 	0.58550 0.09390 0.90610 -0.79000
C 	C 	0.12295 0.49210 0.12295 0.17600
C 	C 	0.13149 0.60086 0.18750 -0.03300
C 	C 	0.09390 0.41450 0.09390 -0.58700
C 	C 	0.49210 0.87705 0.87705 0.32500
C 	C 	0.60086 0.86851 0.81250 -0.00900
C 	C 	0.41450 0.90610 0.90610 -0.95000
C 	C 	0.87705 0.49210 0.87705 0.32700
C 	C 	0.86851 0.60086 0.81250 -0.00800
C 	C 	0.90610 0.41450 0.90610 -0.95100
C 	C 	0.49210 0.12295 0.12295 0.17800
C 	C 	0.60086 0.13149 0.18750 -0.03500
C 	C 	0.41450 0.09390 0.09390 -0.58500
C 	C 	0.12295 0.50790 0.87705 0.25500
C 	C 	0.13149 0.39914 0.81250 -0.02800
C 	C 	0.09390 0.58550 0.90610 -0.78700
C 	C 	0.50790 0.87705 0.12295 0.26000
C 	C 	0.39914 0.86851 0.18750 -0.01600
C 	C 	0.58550 0.90610 0.09390 -0.79100
C 	C 	0.12295 0.87705 0.50790 0.25600
C 	C 	0.18750 0.86851 0.39914 -0.01700
C 	C 	0.09390 0.90610 0.58550 -0.78700
C 	C 	0.87705 0.87705 0.49210 0.32500
C 	C 	0.86851 0.81250 0.60086 -0.00700
C 	C 	0.90610 0.90610 0.41450 -0.94900
C 	C 	0.87705 0.12295 0.50790 0.25900
C 	C 	0.81250 0.13149 0.39914 -0.02900
C 	C 	0.90610 0.09390 0.58550 -0.79200
C 	C 	0.12295 0.12295 0.49210 0.17900
C 	C 	0.13149 0.18750 0.60086 -0.03200
C 	C 	0.09390 0.09390 0.41450 -0.58900
C 	C 	0.18750 0.13149 0.60086 -0.03400
C 	C 	0.13149 0.81250 0.39914 -0.02900
C 	C 	0.81250 0.86851 0.60086 -0.00900
C 	C 	0.86851 0.18750 0.39914 -0.01500
C 	C 	0.39914 0.18750 0.86851 -0.01600
C 	C 	0.39914 0.81250 0.13149 -0.02900
C 	C 	0.81250 0.60086 0.86851 -0.00800
C 	C 	0.60086 0.18750 0.13149 -0.03200
C 	C 	0.18750 0.39914 0.86851 -0.01800
C 	C 	0.60086 0.81250 0.86851 -0.00800
C 	C 	0.81250 0.39914 0.13149 -0.03000
C 	C 	0.18750 0.60086 0.13149 -0.03300
N 	N 	0.40973 0.96832 0.68278 -0.22400
N 	N 	0.96832 0.59027 0.31722 -0.22500
N 	N 	0.59027 0.03168 0.68278 -0.41300
N 	N 	0.03168 0.40973 0.31722 -0.41400
N 	N 	0.40973 0.03168 0.31722 -0.41300
N 	N 	0.03168 0.59027 0.68278 -0.41200
N 	N 	0.59027 0.96832 0.31722 -0.22600
N 	N 	0.96832 0.40973 0.68278 -0.22600
N 	N 	0.68278 0.40973 0.96832 -0.22600
N 	N 	0.40973 0.31722 0.03168 -0.41400
N 	N 	0.31722 0.59027 0.96832 -0.22600
N 	N 	0.59027 0.68278 0.03168 -0.41300
N 	N 	0.68278 0.59027 0.03168 -0.41300
N 	N 	0.59027 0.31722 0.96832 -0.22500
N 	N 	0.31722 0.40973 0.03168 -0.41400
N 	N 	0.40973 0.68278 0.96832 -0.22500
N 	N 	0.96832 0.68278 0.40973 -0.22500
N 	N 	0.96832 0.31722 0.59027 -0.22600
N 	N 	0.31722 0.03168 0.40973 -0.41400
N 	N 	0.03168 0.68278 0.59027 -0.41300
N 	N 	0.68278 0.96832 0.40973 -0.22600
N 	N 	0.03168 0.31722 0.40973 -0.41400
N 	N 	0.31722 0.96832 0.59027 -0.22500
N 	N 	0.68278 0.03168 0.59027 -0.41300
N 	N 	0.90973 0.46832 0.18278 -0.30200
N 	N 	0.46832 0.09027 0.81722 -0.33700
N 	N 	0.09027 0.53168 0.18278 -0.32700
N 	N 	0.53168 0.90973 0.81722 -0.31000
N 	N 	0.90973 0.53168 0.81722 -0.31100
N 	N 	0.53168 0.09027 0.18278 -0.32700
N 	N 	0.09027 0.46832 0.81722 -0.33700
N 	N 	0.46832 0.90973 0.18278 -0.30300
N 	N 	0.18278 0.90973 0.46832 -0.30200
N 	N 	0.90973 0.81722 0.53168 -0.31000
N 	N 	0.81722 0.09027 0.46832 -0.33800
N 	N 	0.09027 0.18278 0.53168 -0.32700
N 	N 	0.18278 0.09027 0.53168 -0.32800
N 	N 	0.09027 0.81722 0.46832 -0.33800
N 	N 	0.81722 0.90973 0.53168 -0.31000
N 	N 	0.90973 0.18278 0.46832 -0.30200
N 	N 	0.46832 0.18278 0.90973 -0.30200
N 	N 	0.46832 0.81722 0.09027 -0.33900
N 	N 	0.81722 0.53168 0.90973 -0.31100
N 	N 	0.53168 0.18278 0.09027 -0.32700
N 	N 	0.18278 0.46832 0.90973 -0.30200
N 	N 	0.53168 0.81722 0.90973 -0.31000
N 	N 	0.81722 0.46832 0.09027 -0.33800
N 	N 	0.18278 0.53168 0.09027 -0.32700
