data_crystal

_cell_length_a 6.72300
_cell_length_b 12.43500
_cell_length_c 15.48100
_cell_angle_alpha 90.00000
_cell_angle_beta  90.00000
_cell_angle_gamma 102.82500

_symmetry_space_group_name_	'P 1'
_symmetry_space_group_name_H-M	'P 1'

loop_
_symmetry_equiv_pos_as_xyz
  x,y,z

loop_
_atom_site_label
_atom_site_type_symbol
_atom_site_fract_x
_atom_site_fract_y
_atom_site_fract_z
_atom_site_charge
Zn	Zn	0.20028 0.07717 0.00508 1.19700
Zn	Zn	0.29972 0.42283 0.50508 1.19900
Zn	Zn	0.79972 0.92283 0.99492 1.19700
Zn	Zn	0.70028 0.57717 0.49492 1.19900
H 	H 	0.07710 0.26400 0.22780 0.04500
H 	H 	0.42290 0.23600 0.72780 0.04800
H 	H 	0.92290 0.73600 0.77220 0.04500
H 	H 	0.57710 0.76400 0.27220 0.04800
H 	H 	0.96300 0.36860 0.33060 0.04700
H 	H 	0.53700 0.13140 0.83060 0.04800
H 	H 	0.03700 0.63140 0.66940 0.04700
H 	H 	0.46300 0.86860 0.16940 0.04800
H 	H 	0.39710 0.18180 0.30550 0.05000
H 	H 	0.10290 0.31820 0.80550 0.05100
H 	H 	0.60290 0.81820 0.69450 0.05000
H 	H 	0.89710 0.68180 0.19450 0.05100
H 	H 	0.51090 0.07960 0.19990 0.04100
H 	H 	0.98910 0.42040 0.69990 0.04200
H 	H 	0.48910 0.92040 0.80010 0.04100
H 	H 	0.01090 0.57960 0.30010 0.04200
C 	C 	0.87990 0.10100 0.12906 0.40500
C 	C 	0.62010 0.39900 0.62906 0.40200
C 	C 	0.12010 0.89900 0.87094 0.40500
C 	C 	0.37990 0.60100 0.37094 0.40200
C 	C 	0.80540 0.16240 0.20112 -0.09900
C 	C 	0.69460 0.33760 0.70112 -0.09700
C 	C 	0.19460 0.83760 0.79888 -0.09900
C 	C 	0.30540 0.66240 0.29888 -0.09700
C 	C 	0.93950 0.24840 0.24240 -0.00500
C 	C 	0.56050 0.25160 0.74240 -0.00900
C 	C 	0.06050 0.75160 0.75760 -0.00500
C 	C 	0.43950 0.74840 0.25760 -0.00900
C 	C 	0.87170 0.31060 0.30440 -0.02500
C 	C 	0.62830 0.18940 0.80440 -0.02300
C 	C 	0.12830 0.68940 0.69560 -0.02500
C 	C 	0.37170 0.81060 0.19560 -0.02300
C 	C 	0.66720 0.28730 0.32845 -0.08900
C 	C 	0.83280 0.21270 0.82845 -0.08800
C 	C 	0.33280 0.71270 0.67155 -0.08900
C 	C 	0.16720 0.78730 0.17155 -0.08800
C 	C 	0.53360 0.19940 0.28910 -0.01900
C 	C 	0.96640 0.30060 0.78910 -0.02000
C 	C 	0.46640 0.80060 0.71090 -0.01900
C 	C 	0.03360 0.69940 0.21090 -0.02000
C 	C 	0.60190 0.13780 0.22590 -0.01500
C 	C 	0.89810 0.36220 0.72590 -0.01500
C 	C 	0.39810 0.86220 0.77410 -0.01500
C 	C 	0.10190 0.63780 0.27410 -0.01500
C 	C 	0.59200 0.35700 0.39440 0.39600
C 	C 	0.90800 0.14300 0.89440 0.39400
C 	C 	0.40800 0.64300 0.60560 0.39600
C 	C 	0.09200 0.85700 0.10560 0.39400
O 	O 	0.06050 0.13320 0.10507 -0.49000
O 	O 	0.43950 0.36680 0.60507 -0.48600
O 	O 	0.93950 0.86680 0.89493 -0.49000
O 	O 	0.56050 0.63320 0.39493 -0.48600
O 	O 	0.75660 0.02082 0.09709 -0.48600
O 	O 	0.74340 0.47918 0.59709 -0.48300
O 	O 	0.24340 0.97918 0.90291 -0.48600
O 	O 	0.25660 0.52082 0.40291 -0.48300
O 	O 	0.71580 0.44117 0.42057 -0.48900
O 	O 	0.78420 0.05883 0.92057 -0.48500
O 	O 	0.28420 0.55883 0.57943 -0.48900
O 	O 	0.21580 0.94117 0.07943 -0.48500
O 	O 	0.41240 0.32780 0.42002 -0.47300
O 	O 	0.08760 0.17220 0.92002 -0.46900
O 	O 	0.58760 0.67220 0.57998 -0.47300
O 	O 	0.91240 0.82780 0.07998 -0.46900
