data_crystal

_cell_length_a 11.56700
_cell_length_b 11.83930
_cell_length_c 14.22700
_cell_angle_alpha 112.49700
_cell_angle_beta  90.00000
_cell_angle_gamma 119.24200

_symmetry_space_group_name_	'P 1'
_symmetry_space_group_name_H-M	'P 1'

loop_
_symmetry_equiv_pos_as_xyz
  x,y,z

loop_
_atom_site_label
_atom_site_type_symbol
_atom_site_fract_x
_atom_site_fract_y
_atom_site_fract_z
_atom_site_charge
Zn	Zn	0.34514 0.71626 0.75624 1.20600
Zn	Zn	0.37112 0.71626 0.25624 1.20700
H 	H 	0.53080 0.42180 0.14610 0.09500
H 	H 	0.16080 0.18640 0.96830 0.07900
H 	H 	0.18970 0.00680 0.87010 0.05200
H 	H 	0.41850 0.55380 0.54770 0.01200
H 	H 	0.55000 0.97380 0.70830 0.00900
H 	H 	0.65670 0.94160 0.55350 0.02800
H 	H 	0.61350 0.70320 0.38150 0.08200
H 	H 	0.53690 0.55740 0.39080 0.08300
H 	H 	0.66590 0.52860 0.51930 0.06100
H 	H 	0.87880 0.58020 0.58380 0.05600
H 	H 	0.05590 0.90520 0.50120 0.02600
H 	H 	0.84300 0.85360 0.43670 0.05600
H 	H 	0.13590 0.76300 0.64660 0.07000
H 	H 	0.19550 0.89660 0.62040 0.06400
H 	H 	0.31500 0.88580 0.46220 0.00300
H 	H 	0.17480 0.45660 0.31780 0.03300
H 	H 	0.07120 0.49740 0.47360 0.04300
H 	H 	0.63970 0.20940 0.99600 0.19500
H 	H 	0.67870 0.34260 0.09230 0.16500
H 	H 	0.89100 0.42180 0.64610 0.09400
H 	H 	0.02560 0.18640 0.46830 0.05500
H 	H 	0.81710 0.00680 0.37010 0.06800
H 	H 	0.13530 0.55380 0.04770 0.01100
H 	H 	0.42380 0.97380 0.20830 0.00900
H 	H 	0.28490 0.94160 0.05350 0.02900
H 	H 	0.08970 0.70320 0.88150 0.08200
H 	H 	0.02050 0.55740 0.89080 0.08100
H 	H 	0.86270 0.52860 0.01930 0.06000
H 	H 	0.70140 0.58020 0.08380 0.05700
H 	H 	0.84930 0.90520 0.00120 0.05200
H 	H 	0.01060 0.85360 0.93670 0.03200
H 	H 	0.62710 0.76300 0.14660 0.07000
H 	H 	0.70110 0.89660 0.12040 0.06400
H 	H 	0.57080 0.88580 0.96220 0.00300
H 	H 	0.28180 0.45660 0.81780 0.03300
H 	H 	0.42620 0.49740 0.97360 0.04400
H 	H 	0.56970 0.20940 0.49600 0.19800
H 	H 	0.66390 0.34260 0.59230 0.16300
C 	C 	0.40410 0.98340 0.88200 0.22000
C 	C 	0.38960 0.11000 0.94600 -0.09900
C 	C 	0.49620 0.23280 0.02790 0.21400
C 	C 	0.46430 0.33900 0.08910 -0.15800
C 	C 	0.33980 0.32300 0.06700 0.02000
C 	C 	0.24490 0.19780 0.98420 -0.09800
C 	C 	0.26030 0.09040 0.92400 0.04000
C 	C 	0.30490 0.43160 0.12980 0.28300
C 	C 	0.46040 0.65160 0.56630 0.06200
C 	C 	0.53480 0.88720 0.65710 -0.00700
C 	C 	0.59470 0.86880 0.57020 -0.01000
C 	C 	0.60110 0.66020 0.42960 -0.15400
C 	C 	0.73340 0.68600 0.47160 0.08300
C 	C 	0.74410 0.60400 0.51560 -0.08400
C 	C 	0.87170 0.63500 0.55430 -0.06400
C 	C 	0.98850 0.74780 0.54890 0.06400
C 	C 	0.97780 0.82980 0.50480 -0.03800
C 	C 	0.85020 0.79880 0.46620 -0.09700
C 	C 	0.13360 0.79320 0.59250 -0.14300
C 	C 	0.26550 0.78740 0.44340 0.03600
C 	C 	0.18690 0.54440 0.36390 0.00200
C 	C 	0.12640 0.56600 0.45110 -0.01700
C 	C 	0.57930 0.98340 0.38200 0.21300
C 	C 	0.72040 0.11000 0.44600 -0.07600
C 	C 	0.73660 0.23280 0.52790 0.19700
C 	C 	0.87470 0.33900 0.58910 -0.14400
C 	C 	0.98320 0.32300 0.56700 0.00400
C 	C 	0.95290 0.19780 0.48420 -0.04100
C 	C 	0.83010 0.09040 0.42400 0.00500
C 	C 	0.12670 0.43160 0.62980 0.27900
C 	C 	0.19120 0.65160 0.06630 0.06200
C 	C 	0.35240 0.88720 0.15710 -0.00700
C 	C 	0.27410 0.86880 0.07020 -0.01100
C 	C 	0.05910 0.66020 0.92960 -0.16400
C 	C 	0.95260 0.68600 0.97160 0.07400
C 	C 	0.85990 0.60400 0.01560 -0.06900
C 	C 	0.76330 0.63500 0.05430 -0.07100
C 	C 	0.75930 0.74780 0.04890 0.06600
C 	C 	0.85200 0.82980 0.00480 -0.07200
C 	C 	0.94860 0.79880 0.96620 -0.06200
C 	C 	0.65960 0.79320 0.09250 -0.13000
C 	C 	0.52190 0.78740 0.94340 0.03700
C 	C 	0.35750 0.54440 0.86390 0.00200
C 	C 	0.43960 0.56600 0.95110 -0.01700
N 	N 	0.44820 0.74980 0.65120 -0.26600
N 	N 	0.54420 0.72200 0.51400 -0.09800
N 	N 	0.27010 0.67960 0.35790 -0.26700
N 	N 	0.16750 0.71460 0.49740 -0.09300
N 	N 	0.61760 0.26500 0.04000 -0.35100
N 	N 	0.30160 0.74980 0.15120 -0.26600
N 	N 	0.17780 0.72200 0.01400 -0.09500
N 	N 	0.40950 0.67960 0.85790 -0.26700
N 	N 	0.54710 0.71460 0.99740 -0.09600
N 	N 	0.64740 0.26500 0.54000 -0.35200
O 	O 	0.52540 0.01140 0.89610 -0.24700
O 	O 	0.30200 0.86620 0.82200 -0.44700
O 	O 	0.40670 0.54800 0.19070 -0.41700
O 	O 	0.18800 0.41760 0.12060 -0.29500
O 	O 	0.48600 0.01140 0.39610 -0.24400
O 	O 	0.56420 0.86620 0.32200 -0.44400
O 	O 	0.14130 0.54800 0.69070 -0.42000
O 	O 	0.22960 0.41760 0.62060 -0.29500
