data_crystal

_cell_length_a 8.87750
_cell_length_b 8.87750
_cell_length_c 23.77500
_cell_angle_alpha 90.00000
_cell_angle_beta  90.00000
_cell_angle_gamma 120.00000

_symmetry_space_group_name_	'P 1'
_symmetry_space_group_name_H-M	'P 1'

loop_
_symmetry_equiv_pos_as_xyz
  x,y,z

loop_
_atom_site_label
_atom_site_type_symbol
_atom_site_fract_x
_atom_site_fract_y
_atom_site_fract_z
_atom_site_charge
Zn	Zn	0.96002 0.29329 0.45592 1.22500
Zn	Zn	0.33327 0.03998 0.45592 1.22500
Zn	Zn	0.70671 0.66673 0.45592 1.22400
Zn	Zn	0.33327 0.29329 0.04408 1.22400
Zn	Zn	0.70671 0.03998 0.04408 1.22400
Zn	Zn	0.96002 0.66673 0.04408 1.22400
Zn	Zn	0.03998 0.70671 0.54408 1.22400
Zn	Zn	0.66673 0.96002 0.54408 1.22400
Zn	Zn	0.29329 0.33327 0.54408 1.22400
Zn	Zn	0.66673 0.70671 0.95592 1.22400
Zn	Zn	0.29329 0.96002 0.95592 1.22400
Zn	Zn	0.03998 0.33327 0.95592 1.22400
Zn	Zn	0.33333 0.66666 0.35062 1.23500
Zn	Zn	0.33333 0.66666 0.14938 1.23500
Zn	Zn	0.66667 0.33334 0.64938 1.23500
Zn	Zn	0.66667 0.33334 0.85062 1.23500
P 	P 	0.03531 0.68092 0.41725 0.53700
P 	P 	0.64561 0.96469 0.41725 0.53700
P 	P 	0.31908 0.35439 0.41725 0.53800
P 	P 	0.64561 0.68092 0.08275 0.53800
P 	P 	0.31908 0.96469 0.08275 0.53800
P 	P 	0.03531 0.35439 0.08275 0.53800
P 	P 	0.96469 0.31908 0.58275 0.53700
P 	P 	0.35439 0.03531 0.58275 0.53700
P 	P 	0.68092 0.64561 0.58275 0.53800
P 	P 	0.35439 0.31908 0.91725 0.53800
P 	P 	0.68092 0.03531 0.91725 0.53800
P 	P 	0.96469 0.64561 0.91725 0.53800
Cl	Cl	0.33333 0.66666 0.25000 -0.60300
Cl	Cl	0.66667 0.33334 0.75000 -0.60300
O 	O 	0.94950 0.49310 0.43437 -0.53400
O 	O 	0.14500 0.79570 0.46814 -0.65000
O 	O 	0.89680 0.72910 0.40339 -0.43700
O 	O 	0.15760 0.72640 0.36686 -0.45200
O 	O 	0.54360 0.05050 0.43437 -0.53400
O 	O 	0.65070 0.85500 0.46814 -0.65000
O 	O 	0.83230 0.10320 0.40339 -0.43600
O 	O 	0.56880 0.84240 0.36686 -0.45200
O 	O 	0.50690 0.45640 0.43437 -0.53500
O 	O 	0.20430 0.34930 0.46814 -0.65000
O 	O 	0.27090 0.16770 0.40339 -0.43700
O 	O 	0.27360 0.43120 0.36686 -0.45200
O 	O 	0.54360 0.49310 0.06563 -0.53500
O 	O 	0.65070 0.79570 0.03186 -0.64900
O 	O 	0.83230 0.72910 0.09661 -0.43700
O 	O 	0.56880 0.72640 0.13314 -0.45200
O 	O 	0.50690 0.05050 0.06563 -0.53500
O 	O 	0.20430 0.85500 0.03186 -0.64900
O 	O 	0.27090 0.10320 0.09661 -0.43700
O 	O 	0.27360 0.84240 0.13314 -0.45200
O 	O 	0.94950 0.45640 0.06563 -0.53500
O 	O 	0.14500 0.34930 0.03186 -0.64900
O 	O 	0.89680 0.16770 0.09661 -0.43700
O 	O 	0.15760 0.43120 0.13314 -0.45200
O 	O 	0.05050 0.50690 0.56563 -0.53400
O 	O 	0.85500 0.20430 0.53186 -0.65000
O 	O 	0.10320 0.27090 0.59661 -0.43700
O 	O 	0.84240 0.27360 0.63314 -0.45200
O 	O 	0.45640 0.94950 0.56563 -0.53400
O 	O 	0.34930 0.14500 0.53186 -0.65000
O 	O 	0.16770 0.89680 0.59661 -0.43600
O 	O 	0.43120 0.15760 0.63314 -0.45200
O 	O 	0.49310 0.54360 0.56563 -0.53500
O 	O 	0.79570 0.65070 0.53186 -0.65000
O 	O 	0.72910 0.83230 0.59661 -0.43700
O 	O 	0.72640 0.56880 0.63314 -0.45200
O 	O 	0.45640 0.50690 0.93437 -0.53500
O 	O 	0.34930 0.20430 0.96814 -0.64900
O 	O 	0.16770 0.27090 0.90339 -0.43700
O 	O 	0.43120 0.27360 0.86686 -0.45200
O 	O 	0.49310 0.94950 0.93437 -0.53500
O 	O 	0.79570 0.14500 0.96814 -0.64900
O 	O 	0.72910 0.89680 0.90339 -0.43700
O 	O 	0.72640 0.15760 0.86686 -0.45200
O 	O 	0.05050 0.54360 0.93437 -0.53500
O 	O 	0.85500 0.65070 0.96814 -0.64900
O 	O 	0.10320 0.83230 0.90339 -0.43700
O 	O 	0.84240 0.56880 0.86686 -0.45200
