data_crystal

_cell_length_a 14.05990
_cell_length_b 14.05990
_cell_length_c 14.35000
_cell_angle_alpha 60.97540
_cell_angle_beta  60.97540
_cell_angle_gamma 83.89110

_symmetry_space_group_name_	'P 1'
_symmetry_space_group_name_H-M	'P 1'

loop_
_symmetry_equiv_pos_as_xyz
  x,y,z

loop_
_atom_site_label
_atom_site_type_symbol
_atom_site_fract_x
_atom_site_fract_y
_atom_site_fract_z
_atom_site_charge
Zn	Zn	0.98025 0.98025 0.91571 1.20900
Zn	Zn	0.01975 0.01975 0.08429 1.20900
Zn	Zn	0.90049 0.09951 0.50000 1.20900
Zn	Zn	0.09951 0.90049 0.50000 1.20900
H 	H 	0.62300 0.93520 0.11570 0.05300
H 	H 	0.43330 0.91670 0.23920 0.01600
H 	H 	0.49240 0.03620 0.40990 0.02400
H 	H 	0.67950 0.03350 0.30250 0.05100
H 	H 	0.76420 0.06600 0.79050 0.31700
H 	H 	0.85490 0.17210 0.69250 0.31800
H 	H 	0.83730 0.10290 0.82590 0.32100
H 	H 	0.27520 0.06860 0.49280 0.27700
H 	H 	0.06480 0.37700 0.88430 0.05400
H 	H 	0.08330 0.56670 0.76080 0.01700
H 	H 	0.96380 0.50760 0.59010 0.02400
H 	H 	0.96650 0.32050 0.69750 0.05100
H 	H 	0.93400 0.23580 0.20950 0.31700
H 	H 	0.82790 0.14510 0.30750 0.31800
H 	H 	0.89710 0.16270 0.17410 0.32100
H 	H 	0.93140 0.72480 0.50720 0.27700
H 	H 	0.37700 0.06480 0.88430 0.05400
H 	H 	0.56670 0.08330 0.76080 0.01700
H 	H 	0.50760 0.96380 0.59010 0.02400
H 	H 	0.32050 0.96650 0.69750 0.05100
H 	H 	0.23580 0.93400 0.20950 0.31700
H 	H 	0.14510 0.82790 0.30750 0.31800
H 	H 	0.16270 0.89710 0.17410 0.32100
H 	H 	0.72480 0.93140 0.50720 0.27700
H 	H 	0.93520 0.62300 0.11570 0.05400
H 	H 	0.91670 0.43330 0.23920 0.01700
H 	H 	0.03620 0.49240 0.40990 0.02400
H 	H 	0.03350 0.67950 0.30250 0.05100
H 	H 	0.06600 0.76420 0.79050 0.31700
H 	H 	0.17210 0.85490 0.69250 0.31800
H 	H 	0.10290 0.83730 0.82590 0.32100
H 	H 	0.06860 0.27520 0.49280 0.27700
C 	C 	0.79080 0.98700 0.12570 0.39200
C 	C 	0.66940 0.98460 0.19870 -0.06600
C 	C 	0.59660 0.95240 0.17800 -0.05300
C 	C 	0.48220 0.94480 0.24960 0.03600
C 	C 	0.44340 0.97840 0.33340 -0.16100
C 	C 	0.51790 0.01290 0.35250 0.02600
C 	C 	0.63080 0.01340 0.28620 -0.05200
C 	C 	0.32060 0.97140 0.41010 0.51800
C 	C 	0.91850 0.03110 0.72280 0.36300
C 	C 	0.83650 0.09910 0.76130 -0.98700
C 	C 	0.01300 0.20920 0.87430 0.39200
C 	C 	0.01540 0.33060 0.80130 -0.06600
C 	C 	0.04760 0.40340 0.82200 -0.05300
C 	C 	0.05520 0.51780 0.75040 0.03600
C 	C 	0.02160 0.55660 0.66660 -0.16100
C 	C 	0.98710 0.48210 0.64750 0.02600
C 	C 	0.98660 0.36920 0.71380 -0.05200
C 	C 	0.02860 0.67940 0.58990 0.51800
C 	C 	0.96890 0.08150 0.27720 0.36300
C 	C 	0.90090 0.16350 0.23870 -0.98700
C 	C 	0.20920 0.01300 0.87430 0.39200
C 	C 	0.33060 0.01540 0.80130 -0.06600
C 	C 	0.40340 0.04760 0.82200 -0.05300
C 	C 	0.51780 0.05520 0.75040 0.03600
C 	C 	0.55660 0.02160 0.66660 -0.16100
C 	C 	0.48210 0.98710 0.64750 0.02600
C 	C 	0.36920 0.98660 0.71380 -0.05200
C 	C 	0.67940 0.02860 0.58990 0.51800
C 	C 	0.08150 0.96890 0.27720 0.36300
C 	C 	0.16350 0.90090 0.23870 -0.98700
C 	C 	0.98700 0.79080 0.12570 0.39200
C 	C 	0.98460 0.66940 0.19870 -0.06600
C 	C 	0.95240 0.59660 0.17800 -0.05300
C 	C 	0.94480 0.48220 0.24960 0.03600
C 	C 	0.97840 0.44340 0.33340 -0.16100
C 	C 	0.01290 0.51790 0.35250 0.02600
C 	C 	0.01340 0.63080 0.28620 -0.05200
C 	C 	0.97140 0.32060 0.41010 0.51800
C 	C 	0.03110 0.91850 0.72280 0.36300
C 	C 	0.09910 0.83650 0.76130 -0.98700
N 	N 	0.94860 0.02280 0.62530 -0.31100
N 	N 	0.97720 0.05140 0.37470 -0.31100
N 	N 	0.05140 0.97720 0.37470 -0.31100
N 	N 	0.02280 0.94860 0.62530 -0.31100
N 	N 	0.96980 0.96980 0.78420 -0.37300
N 	N 	0.03020 0.03020 0.21580 -0.37300
O 	O 	0.82140 0.97320 0.03500 -0.47100
O 	O 	0.85120 0.00260 0.15800 -0.48500
O 	O 	0.25790 0.92790 0.40150 -0.55000
O 	O 	0.28900 0.01660 0.47460 -0.60000
O 	O 	0.02680 0.17860 0.96500 -0.47100
O 	O 	0.99740 0.14880 0.84200 -0.48500
O 	O 	0.07210 0.74210 0.59850 -0.55000
O 	O 	0.98340 0.71100 0.52540 -0.60000
O 	O 	0.17860 0.02680 0.96500 -0.47100
O 	O 	0.14880 0.99740 0.84200 -0.48500
O 	O 	0.74210 0.07210 0.59850 -0.55000
O 	O 	0.71100 0.98340 0.52540 -0.60000
O 	O 	0.97320 0.82140 0.03500 -0.47100
O 	O 	0.00260 0.85120 0.15800 -0.48500
O 	O 	0.92790 0.25790 0.40150 -0.55000
O 	O 	0.01660 0.28900 0.47460 -0.60000
