data_crystal

_cell_length_a 13.82240
_cell_length_b 13.82240
_cell_length_c 14.37600
_cell_angle_alpha 61.91820
_cell_angle_beta  61.91820
_cell_angle_gamma 79.70990

_symmetry_space_group_name_	'P 1'
_symmetry_space_group_name_H-M	'P 1'

loop_
_symmetry_equiv_pos_as_xyz
  x,y,z

loop_
_atom_site_label
_atom_site_type_symbol
_atom_site_fract_x
_atom_site_fract_y
_atom_site_fract_z
_atom_site_charge
Zn	Zn	0.10439 0.89561 0.50000 1.20400
Zn	Zn	0.89561 0.10439 0.50000 1.20400
Zn	Zn	0.01934 0.01934 0.08497 1.21100
Zn	Zn	0.98066 0.98066 0.91503 1.21100
H 	H 	0.92590 0.74250 0.54100 0.25700
H 	H 	0.06930 0.37770 0.88470 0.06800
H 	H 	0.07410 0.56390 0.77150 -0.00300
H 	H 	0.95840 0.51100 0.59630 0.01400
H 	H 	0.95950 0.32590 0.70220 0.07100
H 	H 	0.18440 0.85080 0.69360 0.32100
H 	H 	0.11160 0.82920 0.82500 0.32000
H 	H 	0.08640 0.76220 0.77550 0.31600
H 	H 	0.25750 0.07410 0.45900 0.25700
H 	H 	0.62230 0.93070 0.11530 0.06800
H 	H 	0.43610 0.92590 0.22850 -0.00300
H 	H 	0.48900 0.04160 0.40370 0.01400
H 	H 	0.67410 0.04050 0.29780 0.07100
H 	H 	0.14920 0.81560 0.30640 0.32100
H 	H 	0.17080 0.88840 0.17500 0.32000
H 	H 	0.23780 0.91360 0.22450 0.31600
H 	H 	0.07410 0.25750 0.45900 0.25700
H 	H 	0.93070 0.62230 0.11530 0.06800
H 	H 	0.92590 0.43610 0.22850 -0.00300
H 	H 	0.04160 0.48900 0.40370 0.01400
H 	H 	0.04050 0.67410 0.29780 0.07100
H 	H 	0.81560 0.14920 0.30640 0.32100
H 	H 	0.88840 0.17080 0.17500 0.32000
H 	H 	0.91360 0.23780 0.22450 0.31600
H 	H 	0.74250 0.92590 0.54100 0.25700
H 	H 	0.37770 0.06930 0.88470 0.06800
H 	H 	0.56390 0.07410 0.77150 -0.00300
H 	H 	0.51100 0.95840 0.59630 0.01400
H 	H 	0.32590 0.95950 0.70220 0.07100
H 	H 	0.85080 0.18440 0.69360 0.32100
H 	H 	0.82920 0.11160 0.82500 0.32000
H 	H 	0.76220 0.08640 0.77550 0.31600
C 	C 	0.00750 0.20910 0.88250 0.37400
C 	C 	0.01440 0.33180 0.80670 -0.03000
C 	C 	0.04850 0.40350 0.82450 -0.09400
C 	C 	0.05360 0.51600 0.75440 0.08800
C 	C 	0.02980 0.55700 0.66380 -0.21100
C 	C 	0.98610 0.48410 0.65110 0.07100
C 	C 	0.98300 0.37360 0.71730 -0.09200
C 	C 	0.03850 0.67830 0.58510 0.56600
C 	C 	0.03690 0.91730 0.72100 0.35700
C 	C 	0.11140 0.83240 0.75690 -0.98500
C 	C 	0.79090 0.99250 0.11750 0.37400
C 	C 	0.66820 0.98560 0.19330 -0.03000
C 	C 	0.59650 0.95150 0.17550 -0.09400
C 	C 	0.48400 0.94640 0.24560 0.08800
C 	C 	0.44300 0.97020 0.33620 -0.21100
C 	C 	0.51590 0.01390 0.34890 0.07100
C 	C 	0.62640 0.01700 0.28270 -0.09200
C 	C 	0.32170 0.96150 0.41490 0.56600
C 	C 	0.08270 0.96310 0.27900 0.35700
C 	C 	0.16760 0.88860 0.24310 -0.98500
C 	C 	0.99250 0.79090 0.11750 0.37400
C 	C 	0.98560 0.66820 0.19330 -0.03000
C 	C 	0.95150 0.59650 0.17550 -0.09400
C 	C 	0.94640 0.48400 0.24560 0.08800
C 	C 	0.97020 0.44300 0.33620 -0.21100
C 	C 	0.01390 0.51590 0.34890 0.07100
C 	C 	0.01700 0.62640 0.28270 -0.09200
C 	C 	0.96150 0.32170 0.41490 0.56600
C 	C 	0.96310 0.08270 0.27900 0.35700
C 	C 	0.88860 0.16760 0.24310 -0.98500
C 	C 	0.20910 0.00750 0.88250 0.37400
C 	C 	0.33180 0.01440 0.80670 -0.03000
C 	C 	0.40350 0.04850 0.82450 -0.09400
C 	C 	0.51600 0.05360 0.75440 0.08800
C 	C 	0.55700 0.02980 0.66380 -0.21100
C 	C 	0.48410 0.98610 0.65110 0.07100
C 	C 	0.37360 0.98300 0.71730 -0.09200
C 	C 	0.67830 0.03850 0.58510 0.56600
C 	C 	0.91730 0.03690 0.72100 0.35700
C 	C 	0.83240 0.11140 0.75690 -0.98500
N 	N 	0.02500 0.94900 0.62410 -0.30600
N 	N 	0.05100 0.97500 0.37590 -0.30600
N 	N 	0.97500 0.05100 0.37590 -0.30600
N 	N 	0.94900 0.02500 0.62410 -0.30600
N 	N 	0.97220 0.97220 0.78230 -0.36900
N 	N 	0.02780 0.02780 0.21770 -0.36900
O 	O 	0.02210 0.17750 0.97180 -0.46900
O 	O 	0.98790 0.14770 0.85090 -0.47400
O 	O 	0.08270 0.73670 0.59240 -0.58100
O 	O 	0.98910 0.71430 0.52320 -0.60100
O 	O 	0.82250 0.97790 0.02820 -0.46900
O 	O 	0.85230 0.01210 0.14910 -0.47400
O 	O 	0.26330 0.91730 0.40760 -0.58100
O 	O 	0.28570 0.01090 0.47680 -0.60100
O 	O 	0.97790 0.82250 0.02820 -0.46900
O 	O 	0.01210 0.85230 0.14910 -0.47400
O 	O 	0.91730 0.26330 0.40760 -0.58100
O 	O 	0.01090 0.28570 0.47680 -0.60100
O 	O 	0.17750 0.02210 0.97180 -0.46900
O 	O 	0.14770 0.98790 0.85090 -0.47400
O 	O 	0.73670 0.08270 0.59240 -0.58100
O 	O 	0.71430 0.98910 0.52320 -0.60100
