data_crystal

_cell_length_a 7.97700
_cell_length_b 9.28210
_cell_length_c 15.85190
_cell_angle_alpha 85.38680
_cell_angle_beta  79.21200
_cell_angle_gamma 64.55160

_symmetry_space_group_name_	'P 1'
_symmetry_space_group_name_H-M	'P 1'

loop_
_symmetry_equiv_pos_as_xyz
  x,y,z

loop_
_atom_site_label
_atom_site_type_symbol
_atom_site_fract_x
_atom_site_fract_y
_atom_site_fract_z
_atom_site_charge
Zn	Zn	0.25056 0.35124 0.50431 1.18900
Zn	Zn	0.39820 0.35124 0.99569 1.18900
Zn	Zn	0.74944 0.64876 0.49569 1.18800
Zn	Zn	0.60180 0.64876 0.00431 1.18800
Zn	Zn	0.93553 0.12894 0.25000 1.20300
Zn	Zn	0.06447 0.87106 0.75000 1.20300
H 	H 	0.83020 0.20880 0.59450 0.02100
H 	H 	0.39400 0.09640 0.36520 0.17200
H 	H 	0.31690 0.04500 0.30060 0.16700
H 	H 	0.71870 0.44080 0.35800 -0.03900
H 	H 	0.96100 0.20880 0.90550 0.02200
H 	H 	0.50960 0.09640 0.13480 0.17200
H 	H 	0.63810 0.04500 0.19940 0.16500
H 	H 	0.84050 0.44080 0.14200 -0.03900
H 	H 	0.16980 0.79120 0.40550 0.02100
H 	H 	0.60600 0.90360 0.63480 0.17200
H 	H 	0.68310 0.95500 0.69940 0.16700
H 	H 	0.28130 0.55920 0.64200 -0.03900
H 	H 	0.03900 0.79120 0.09450 0.02200
H 	H 	0.49040 0.90360 0.86520 0.17200
H 	H 	0.36190 0.95500 0.80060 0.16500
H 	H 	0.15950 0.55920 0.85800 -0.03900
C 	C 	0.60080 0.19000 0.50140 0.29100
C 	C 	0.89930 0.12440 0.55620 -0.00400
C 	C 	0.91140 0.96320 0.44190 -0.13300
C 	C 	0.80760 0.09080 0.49880 -0.05300
C 	C 	0.13090 0.23380 0.36330 0.20100
C 	C 	0.84160 0.39280 0.36880 0.10200
C 	C 	0.83130 0.91540 0.37580 0.39300
C 	C 	0.20920 0.19000 0.99860 0.28400
C 	C 	0.97630 0.12440 0.94380 -0.00400
C 	C 	0.12540 0.96320 0.05810 -0.14600
C 	C 	0.10160 0.09080 0.00120 -0.03600
C 	C 	0.63530 0.23380 0.13670 0.19700
C 	C 	0.76560 0.39280 0.13120 0.10200
C 	C 	0.25330 0.91540 0.12420 0.39600
C 	C 	0.39920 0.81000 0.49860 0.29100
C 	C 	0.10070 0.87560 0.44380 -0.00400
C 	C 	0.08860 0.03680 0.55810 -0.13300
C 	C 	0.19240 0.90920 0.50120 -0.05300
C 	C 	0.86910 0.76620 0.63670 0.20100
C 	C 	0.15840 0.60720 0.63120 0.10200
C 	C 	0.16870 0.08460 0.62420 0.39300
C 	C 	0.79080 0.81000 0.00140 0.28400
C 	C 	0.02370 0.87560 0.05620 -0.00400
C 	C 	0.87460 0.03680 0.94190 -0.14600
C 	C 	0.89840 0.90920 0.99880 -0.03600
C 	C 	0.36470 0.76620 0.86330 0.19700
C 	C 	0.23440 0.60720 0.86880 0.10200
C 	C 	0.74670 0.08460 0.87580 0.39600
N 	N 	0.09040 0.34180 0.42370 -0.27800
N 	N 	0.30140 0.11000 0.34020 -0.35500
N 	N 	0.97720 0.26160 0.32770 -0.31000
N 	N 	0.90200 0.44540 0.42590 -0.25400
N 	N 	0.56780 0.34180 0.07630 -0.27800
N 	N 	0.58860 0.11000 0.15980 -0.35400
N 	N 	0.76120 0.26160 0.17230 -0.30900
N 	N 	0.65260 0.44540 0.07410 -0.25400
N 	N 	0.90960 0.65820 0.57630 -0.27800
N 	N 	0.69860 0.89000 0.65980 -0.35500
N 	N 	0.02280 0.73840 0.67230 -0.31000
N 	N 	0.09800 0.55460 0.57410 -0.25400
N 	N 	0.43220 0.65820 0.92370 -0.27800
N 	N 	0.41140 0.89000 0.84020 -0.35400
N 	N 	0.23880 0.73840 0.82770 -0.30900
N 	N 	0.34740 0.55460 0.92590 -0.25400
O 	O 	0.51590 0.15580 0.45280 -0.41300
O 	O 	0.51470 0.30560 0.55180 -0.39700
O 	O 	0.79000 0.79860 0.39080 -0.42400
O 	O 	0.82530 0.98360 0.30330 -0.47700
O 	O 	0.32830 0.15580 0.04720 -0.40800
O 	O 	0.17970 0.30560 0.94820 -0.39500
O 	O 	0.41140 0.79860 0.10920 -0.42500
O 	O 	0.19110 0.98360 0.19670 -0.48000
O 	O 	0.48410 0.84420 0.54720 -0.41300
O 	O 	0.48530 0.69440 0.44820 -0.39700
O 	O 	0.21000 0.20140 0.60920 -0.42400
O 	O 	0.17470 0.01640 0.69670 -0.47700
O 	O 	0.67170 0.84420 0.95280 -0.40800
O 	O 	0.82030 0.69440 0.05180 -0.39500
O 	O 	0.58860 0.20140 0.89080 -0.42500
O 	O 	0.80890 0.01640 0.80330 -0.48000
