data_crystal

_cell_length_a 9.02900
_cell_length_b 10.93400
_cell_length_c 13.14600
_cell_angle_alpha 90.03100
_cell_angle_beta  90.00000
_cell_angle_gamma 90.00000

_symmetry_space_group_name_	'P 1'
_symmetry_space_group_name_H-M	'P 1'

loop_
_symmetry_equiv_pos_as_xyz
  x,y,z

loop_
_atom_site_label
_atom_site_type_symbol
_atom_site_fract_x
_atom_site_fract_y
_atom_site_fract_z
_atom_site_charge
Zn	Zn	0.80583 0.10552 0.80306 1.24200
Zn	Zn	0.48694 0.26547 0.07147 1.19400
Zn	Zn	0.30583 0.39448 0.69694 1.24200
Zn	Zn	0.98694 0.23453 0.42853 1.19400
Zn	Zn	0.19417 0.89448 0.19694 1.24100
Zn	Zn	0.51306 0.73453 0.92853 1.19300
Zn	Zn	0.69417 0.60552 0.30306 1.24100
Zn	Zn	0.01306 0.76547 0.57147 1.19300
H 	H 	0.64950 0.93720 0.12410 0.06500
H 	H 	0.60720 0.08730 0.29770 0.07200
H 	H 	0.89780 0.98490 0.11160 0.08900
H 	H 	0.85940 0.21690 0.12680 0.03800
H 	H 	0.14950 0.56280 0.37590 0.06800
H 	H 	0.10720 0.41270 0.20230 0.07100
H 	H 	0.39780 0.51510 0.38840 0.07900
H 	H 	0.35940 0.28310 0.37320 0.04300
H 	H 	0.35050 0.06280 0.87590 0.06500
H 	H 	0.39280 0.91270 0.70230 0.07200
H 	H 	0.10220 0.01510 0.88840 0.08900
H 	H 	0.14060 0.78310 0.87320 0.03800
H 	H 	0.85050 0.43720 0.62410 0.06800
H 	H 	0.89280 0.58730 0.79770 0.07100
H 	H 	0.60220 0.48490 0.61160 0.07900
H 	H 	0.64060 0.71690 0.62680 0.04300
C 	C 	0.74910 0.14078 0.00337 0.28900
C 	C 	0.69210 0.96870 0.18743 -0.08300
C 	C 	0.43550 0.05290 0.19648 0.33800
C 	C 	0.59690 0.07673 0.22402 -0.03500
C 	C 	0.84200 0.03200 0.16213 -0.17300
C 	C 	0.78540 0.15250 0.11675 0.00500
C 	C 	0.69870 0.86470 0.26445 0.35300
C 	C 	0.93470 0.05460 0.25723 0.42300
C 	C 	0.24910 0.35922 0.49663 0.31000
C 	C 	0.19210 0.53130 0.31257 -0.09800
C 	C 	0.93550 0.44710 0.30352 0.33900
C 	C 	0.09690 0.42327 0.27598 -0.02600
C 	C 	0.34200 0.46800 0.33787 -0.15100
C 	C 	0.28540 0.34750 0.38325 -0.00600
C 	C 	0.19870 0.63530 0.23555 0.35800
C 	C 	0.43470 0.44540 0.24277 0.42400
C 	C 	0.25090 0.85922 0.99663 0.28900
C 	C 	0.30790 0.03130 0.81257 -0.08300
C 	C 	0.56450 0.94710 0.80352 0.33800
C 	C 	0.40310 0.92327 0.77598 -0.03500
C 	C 	0.15800 0.96800 0.83787 -0.17300
C 	C 	0.21460 0.84750 0.88325 0.00500
C 	C 	0.30130 0.13530 0.73555 0.35300
C 	C 	0.06530 0.94540 0.74277 0.42300
C 	C 	0.75090 0.64078 0.50337 0.31000
C 	C 	0.80790 0.46870 0.68743 -0.09800
C 	C 	0.06450 0.55290 0.69648 0.33900
C 	C 	0.90310 0.57673 0.72402 -0.02600
C 	C 	0.65800 0.53200 0.66213 -0.15100
C 	C 	0.71460 0.65250 0.61675 -0.00600
C 	C 	0.80130 0.36470 0.76445 0.35800
C 	C 	0.56530 0.55460 0.75723 0.42400
O 	O 	0.65236 0.18271 0.17155 -0.29300
O 	O 	0.89364 0.13890 0.31390 -0.47100
O 	O 	0.62240 0.16172 0.97147 -0.45200
O 	O 	0.85829 0.11066 0.94686 -0.43200
O 	O 	0.68730 0.75836 0.22657 -0.46600
O 	O 	0.37426 0.11186 0.12741 -0.44600
O 	O 	0.04550 0.98723 0.27463 -0.50300
O 	O 	0.71270 0.88657 0.35521 -0.31300
O 	O 	0.37845 0.96626 0.24596 -0.44400
O 	O 	0.15236 0.31729 0.32845 -0.29100
O 	O 	0.39364 0.36110 0.18610 -0.47000
O 	O 	0.12240 0.33828 0.52853 -0.46200
O 	O 	0.35829 0.38934 0.55314 -0.44200
O 	O 	0.18730 0.74164 0.27343 -0.46700
O 	O 	0.87426 0.38814 0.37259 -0.44500
O 	O 	0.54550 0.51277 0.22537 -0.50600
O 	O 	0.21270 0.61343 0.14479 -0.31300
O 	O 	0.87845 0.53374 0.25404 -0.44600
O 	O 	0.34764 0.81729 0.82845 -0.29300
O 	O 	0.10636 0.86110 0.68610 -0.47100
O 	O 	0.37760 0.83828 0.02853 -0.45200
O 	O 	0.14171 0.88934 0.05314 -0.43200
O 	O 	0.31270 0.24164 0.77343 -0.46600
O 	O 	0.62574 0.88814 0.87259 -0.44600
O 	O 	0.95450 0.01277 0.72537 -0.50300
O 	O 	0.28730 0.11343 0.64479 -0.31300
O 	O 	0.62155 0.03374 0.75404 -0.44400
O 	O 	0.84764 0.68271 0.67155 -0.29100
O 	O 	0.60636 0.63890 0.81390 -0.47000
O 	O 	0.87760 0.66172 0.47147 -0.46200
O 	O 	0.64171 0.61066 0.44686 -0.44200
O 	O 	0.81270 0.25836 0.72657 -0.46700
O 	O 	0.12574 0.61186 0.62741 -0.44500
O 	O 	0.45450 0.48723 0.77463 -0.50600
O 	O 	0.78730 0.38657 0.85521 -0.31300
O 	O 	0.12155 0.46626 0.74596 -0.44600
