data_crystal

_cell_length_a 10.60900
_cell_length_b 12.32100
_cell_length_c 25.81600
_cell_angle_alpha 91.73900
_cell_angle_beta  90.00000
_cell_angle_gamma 90.00000

_symmetry_space_group_name_	'P 1'
_symmetry_space_group_name_H-M	'P 1'

loop_
_symmetry_equiv_pos_as_xyz
  x,y,z

loop_
_atom_site_label
_atom_site_type_symbol
_atom_site_fract_x
_atom_site_fract_y
_atom_site_fract_z
_atom_site_charge
Zn	Zn	0.76496 0.58035 0.55826 1.22100
Zn	Zn	0.76496 0.91965 0.94174 1.22800
Zn	Zn	0.23504 0.41965 0.44174 1.22100
Zn	Zn	0.23504 0.08035 0.05826 1.21200
Zn	Zn	0.50000 0.50000 0.50000 1.24900
Zn	Zn	0.50000 0.00000 -0.00000 1.23300
H 	H 	0.60530 0.99020 0.16710 0.12400
H 	H 	0.37400 0.96280 0.20880 0.04200
H 	H 	0.35780 0.86780 0.28850 0.05300
H 	H 	0.44490 0.78810 0.35890 0.04500
H 	H 	0.78810 0.87440 0.31070 0.04300
H 	H 	0.69860 0.94980 0.23870 0.05500
H 	H 	0.54880 0.70130 0.42250 0.13900
H 	H 	0.77530 0.77370 0.38680 0.02200
H 	H 	0.71540 0.19010 0.50820 0.12100
H 	H 	0.95450 0.26570 0.52720 0.05700
H 	H 	0.12380 0.14340 0.52880 0.09300
H 	H 	0.78900 0.02590 0.48360 0.07000
H 	H 	0.56990 0.78920 0.56650 0.00600
H 	H 	0.57560 0.96710 0.59850 0.08400
H 	H 	0.76310 0.03880 0.62990 0.00100
H 	H 	0.26110 0.71580 0.62750 0.05900
H 	H 	0.23520 0.54460 0.59160 0.06200
H 	H 	0.03820 0.48830 0.56380 0.03000
H 	H 	0.99520 0.01110 0.65140 0.00600
H 	H 	0.16150 0.89980 0.65160 0.07400
H 	H 	0.60530 0.50980 0.33290 0.13300
H 	H 	0.37400 0.53720 0.29120 0.02500
H 	H 	0.35780 0.63220 0.21150 0.04600
H 	H 	0.44490 0.71190 0.14110 0.05000
H 	H 	0.78810 0.62560 0.18930 0.04600
H 	H 	0.69860 0.55020 0.26130 0.04300
H 	H 	0.54880 0.79870 0.07750 0.13800
H 	H 	0.77530 0.72630 0.11320 0.02400
H 	H 	0.71540 0.30990 0.99180 0.12700
H 	H 	0.95450 0.23430 0.97280 0.06300
H 	H 	0.12380 0.35660 0.97120 0.09700
H 	H 	0.78900 0.47410 0.01640 0.07400
H 	H 	0.56990 0.71080 0.93350 0.02100
H 	H 	0.57560 0.53290 0.90150 0.05900
H 	H 	0.76310 0.46120 0.87010 0.04600
H 	H 	0.26110 0.78420 0.87250 0.04500
H 	H 	0.23520 0.95540 0.90840 0.08700
H 	H 	0.03820 0.01170 0.93620 -0.00000
H 	H 	0.99520 0.48890 0.84860 0.05300
H 	H 	0.16150 0.60020 0.84840 0.04500
H 	H 	0.39470 0.00980 0.83290 0.14000
H 	H 	0.62600 0.03720 0.79120 0.01100
H 	H 	0.64220 0.13220 0.71150 0.03900
H 	H 	0.55510 0.21190 0.64110 0.05200
H 	H 	0.21190 0.12560 0.68930 0.05000
H 	H 	0.30140 0.05020 0.76130 0.03500
H 	H 	0.45120 0.29870 0.57750 0.13400
H 	H 	0.22470 0.22630 0.61320 0.02500
H 	H 	0.28460 0.80990 0.49180 0.14100
H 	H 	0.04550 0.73430 0.47280 0.03700
H 	H 	0.87620 0.85660 0.47120 0.04100
H 	H 	0.21100 0.97410 0.51640 0.02200
H 	H 	0.43010 0.21080 0.43350 0.02400
H 	H 	0.42440 0.03290 0.40150 0.03000
H 	H 	0.23690 0.96120 0.37010 0.09300
H 	H 	0.73890 0.28420 0.37250 0.04000
H 	H 	0.76480 0.45540 0.40840 0.07200
H 	H 	0.96180 0.51170 0.43620 0.02600
H 	H 	0.00480 0.98890 0.34860 0.09800
H 	H 	0.83850 0.10020 0.34840 0.02400
H 	H 	0.39470 0.49020 0.66710 0.13400
H 	H 	0.62600 0.46280 0.70880 0.02400
H 	H 	0.64220 0.36780 0.78850 0.04400
H 	H 	0.55510 0.28810 0.85890 0.04900
H 	H 	0.21190 0.37440 0.81070 0.04800
H 	H 	0.30140 0.44980 0.73870 0.04400
H 	H 	0.45120 0.20130 0.92250 0.13500
H 	H 	0.22470 0.27370 0.88680 0.02400
H 	H 	0.28460 0.69010 0.00820 0.13500
H 	H 	0.04550 0.76570 0.02720 0.03100
H 	H 	0.87620 0.64340 0.02880 0.03600
H 	H 	0.21100 0.52590 0.98360 0.01800
H 	H 	0.43010 0.28920 0.06650 0.00700
H 	H 	0.42440 0.46710 0.09850 0.05700
H 	H 	0.23690 0.53880 0.12990 0.04300
H 	H 	0.73890 0.21580 0.12750 0.05700
H 	H 	0.76480 0.04460 0.09160 0.04200
H 	H 	0.96180 0.98830 0.06380 0.06500
H 	H 	0.00480 0.51110 0.15140 0.04400
H 	H 	0.83850 0.39980 0.15160 0.05600
C 	C 	0.45300 0.02380 0.11860 0.40400
C 	C 	0.51770 0.98910 0.16690 -0.21600
C 	C 	0.46140 0.95760 0.20860 0.03600
C 	C 	0.51890 0.91500 0.25530 0.01900
C 	C 	0.44490 0.86770 0.29240 -0.06000
C 	C 	0.49690 0.82060 0.33480 -0.03400
C 	C 	0.62620 0.82100 0.34220 -0.01000
C 	C 	0.70120 0.87130 0.30600 -0.03700
C 	C 	0.64720 0.91710 0.26290 -0.05800
C 	C 	0.71200 0.65660 0.46290 0.41900
C 	C 	0.63590 0.70920 0.42200 -0.27000
C 	C 	0.68810 0.76680 0.38520 0.06400
C 	C 	0.73270 0.35620 0.52350 0.44000
C 	C 	0.77580 0.24310 0.51550 -0.23600
C 	C 	0.89620 0.21210 0.51810 0.00900
C 	C 	0.94620 0.10260 0.50830 0.06400
C 	C 	0.07340 0.08570 0.51740 -0.14000
C 	C 	0.87410 0.01570 0.49050 -0.12900
C 	C 	0.64460 0.81690 0.58040 0.07900
C 	C 	0.64780 0.92440 0.59910 -0.12800
C 	C 	0.75940 0.96660 0.61830 0.05000
C 	C 	0.86570 0.90200 0.62050 -0.04200
C 	C 	0.85370 0.79430 0.60080 0.05200
C 	C 	0.96370 0.72440 0.60040 0.00300
C 	C 	0.08110 0.76550 0.61840 0.05100
C 	C 	0.18240 0.69390 0.61530 -0.06100
C 	C 	0.16690 0.59170 0.59450 -0.05800
C 	C 	0.04760 0.55840 0.57760 0.04700
C 	C 	0.98640 0.93990 0.63900 0.02800
C 	C 	0.08550 0.87360 0.63830 -0.10600
C 	C 	0.45300 0.47620 0.38140 0.43700
C 	C 	0.51770 0.51090 0.33310 -0.26500
C 	C 	0.46140 0.54240 0.29140 0.06600
C 	C 	0.51890 0.58500 0.24470 -0.00700
C 	C 	0.44490 0.63230 0.20760 -0.04500
C 	C 	0.49690 0.67940 0.16520 -0.05100
C 	C 	0.62620 0.67900 0.15780 -0.00100
C 	C 	0.70120 0.62870 0.19400 -0.05300
C 	C 	0.64720 0.58290 0.23710 -0.04300
C 	C 	0.71200 0.84340 0.03710 0.42000
C 	C 	0.63590 0.79080 0.07800 -0.26700
C 	C 	0.68810 0.73320 0.11480 0.05600
C 	C 	0.73270 0.14380 0.97650 0.44000
C 	C 	0.77580 0.25690 0.98450 -0.22500
C 	C 	0.89620 0.28790 0.98190 0.00100
C 	C 	0.94620 0.39740 0.99170 0.09900
C 	C 	0.07340 0.41430 0.98260 -0.13400
C 	C 	0.87410 0.48430 0.00950 -0.15200
C 	C 	0.64460 0.68310 0.91960 0.05200
C 	C 	0.64780 0.57560 0.90090 -0.07200
C 	C 	0.75940 0.53340 0.88170 -0.04200
C 	C 	0.86570 0.59800 0.87950 0.02300
C 	C 	0.85370 0.70570 0.89920 0.02600
C 	C 	0.96370 0.77560 0.89960 0.03100
C 	C 	0.08110 0.73450 0.88160 0.00800
C 	C 	0.18240 0.80610 0.88470 -0.01300
C 	C 	0.16690 0.90830 0.90550 -0.10200
C 	C 	0.04760 0.94160 0.92240 0.10900
C 	C 	0.98640 0.56010 0.86100 -0.07100
C 	C 	0.08550 0.62640 0.86170 -0.03500
C 	C 	0.54700 0.97620 0.88140 0.46200
C 	C 	0.48230 0.01090 0.83310 -0.30300
C 	C 	0.53860 0.04240 0.79140 0.09100
C 	C 	0.48110 0.08500 0.74470 -0.02700
C 	C 	0.55510 0.13230 0.70760 -0.03100
C 	C 	0.50310 0.17940 0.66520 -0.06400
C 	C 	0.37380 0.17900 0.65780 0.00700
C 	C 	0.29880 0.12870 0.69400 -0.06700
C 	C 	0.35280 0.08290 0.73710 -0.02900
C 	C 	0.28800 0.34340 0.53710 0.41500
C 	C 	0.36410 0.29080 0.57800 -0.26300
C 	C 	0.31190 0.23320 0.61480 0.04800
C 	C 	0.26730 0.64380 0.47650 0.45600
C 	C 	0.22420 0.75690 0.48450 -0.27800
C 	C 	0.10380 0.78790 0.48190 0.08200
C 	C 	0.05380 0.89740 0.49170 -0.04500
C 	C 	0.92660 0.91430 0.48260 0.02100
C 	C 	0.12590 0.98430 0.50950 0.04600
C 	C 	0.35540 0.18310 0.41960 0.01800
C 	C 	0.35220 0.07560 0.40090 -0.02000
C 	C 	0.24060 0.03340 0.38170 -0.13800
C 	C 	0.13430 0.09800 0.37950 0.07900
C 	C 	0.14630 0.20570 0.39920 -0.00300
C 	C 	0.03630 0.27560 0.39960 0.05200
C 	C 	0.91890 0.23450 0.38160 -0.02400
C 	C 	0.81760 0.30610 0.38470 -0.01600
C 	C 	0.83310 0.40830 0.40550 -0.08600
C 	C 	0.95240 0.44160 0.42240 0.05100
C 	C 	0.01360 0.06010 0.36100 -0.14700
C 	C 	0.91450 0.12640 0.36170 0.00100
C 	C 	0.54700 0.52380 0.61860 0.43800
C 	C 	0.48230 0.48910 0.66690 -0.26600
C 	C 	0.53860 0.45760 0.70860 0.06800
C 	C 	0.48110 0.41500 0.75530 -0.00800
C 	C 	0.55510 0.36770 0.79240 -0.04200
C 	C 	0.50310 0.32060 0.83480 -0.05200
C 	C 	0.37380 0.32100 0.84220 0.00200
C 	C 	0.29880 0.37130 0.80600 -0.05500
C 	C 	0.35280 0.41710 0.76290 -0.04000
C 	C 	0.28800 0.15660 0.96290 0.41100
C 	C 	0.36410 0.20920 0.92200 -0.26200
C 	C 	0.31190 0.26680 0.88520 0.05300
C 	C 	0.26730 0.85620 0.02350 0.45500
C 	C 	0.22420 0.74310 0.01550 -0.28800
C 	C 	0.10380 0.71210 0.01810 0.09100
C 	C 	0.05380 0.60260 0.00830 -0.08200
C 	C 	0.92660 0.58570 0.01740 0.01800
C 	C 	0.12590 0.51570 0.99050 0.06600
C 	C 	0.35540 0.31690 0.08040 0.04800
C 	C 	0.35220 0.42440 0.09910 -0.08300
C 	C 	0.24060 0.46660 0.11830 -0.03600
C 	C 	0.13430 0.40200 0.12050 0.00600
C 	C 	0.14630 0.29430 0.10080 0.02700
C 	C 	0.03630 0.22440 0.10040 0.01900
C 	C 	0.91890 0.26550 0.11840 0.02800
C 	C 	0.81760 0.19390 0.11530 -0.07300
C 	C 	0.83310 0.09170 0.09450 -0.03100
C 	C 	0.95240 0.05840 0.07760 -0.02500
C 	C 	0.01360 0.43990 0.13900 -0.03500
C 	C 	0.91450 0.37360 0.13830 -0.08000
N 	N 	0.74620 0.75260 0.58200 -0.22100
N 	N 	0.94700 0.62230 0.58057 -0.22900
N 	N 	0.74620 0.74740 0.91800 -0.20600
N 	N 	0.94700 0.87770 0.91943 -0.23900
N 	N 	0.25380 0.24740 0.41800 -0.20000
N 	N 	0.05300 0.37770 0.41943 -0.23300
N 	N 	0.25380 0.25260 0.08200 -0.21600
N 	N 	0.05300 0.12230 0.08057 -0.22100
O 	O 	0.61860 0.37380 0.51510 -0.46800
O 	O 	0.81290 0.42730 0.53747 -0.46600
O 	O 	0.64920 0.60860 0.49847 -0.58600
O 	O 	0.82690 0.66590 0.46378 -0.35000
O 	O 	0.52070 0.03710 0.08022 -0.46400
O 	O 	0.33430 0.03600 0.12055 -0.47100
O 	O 	0.61860 0.12620 0.98490 -0.45900
O 	O 	0.81290 0.07270 0.96253 -0.46700
O 	O 	0.64920 0.89140 0.00153 -0.59200
O 	O 	0.82690 0.83410 0.03622 -0.35400
O 	O 	0.52070 0.46290 0.41978 -0.45800
O 	O 	0.33430 0.46400 0.37945 -0.46700
O 	O 	0.38140 0.62620 0.48490 -0.47100
O 	O 	0.18710 0.57270 0.46253 -0.46800
O 	O 	0.35080 0.39140 0.50153 -0.58600
O 	O 	0.17310 0.33410 0.53622 -0.35000
O 	O 	0.47930 0.96290 0.91978 -0.44900
O 	O 	0.66570 0.96400 0.87945 -0.46300
O 	O 	0.38140 0.87380 0.01510 -0.47200
O 	O 	0.18710 0.92730 0.03747 -0.46300
O 	O 	0.35080 0.10860 0.99847 -0.57100
O 	O 	0.17310 0.16590 0.96378 -0.34400
O 	O 	0.47930 0.53710 0.58022 -0.45800
O 	O 	0.66570 0.53600 0.62055 -0.46700
