data_crystal

_cell_length_a 6.20470
_cell_length_b 17.74600
_cell_length_c 20.42300
_cell_angle_alpha 90.00000
_cell_angle_beta  98.45230
_cell_angle_gamma 90.00000

_symmetry_space_group_name_	'P 1'
_symmetry_space_group_name_H-M	'P 1'

loop_
_symmetry_equiv_pos_as_xyz
  x,y,z

loop_
_atom_site_label
_atom_site_type_symbol
_atom_site_fract_x
_atom_site_fract_y
_atom_site_fract_z
_atom_site_charge
Zn	Zn	0.21191 0.51380 0.28062 1.21200
Zn	Zn	0.28809 0.01380 0.21938 1.21200
Zn	Zn	0.78809 0.48620 0.71938 1.21200
Zn	Zn	0.71191 0.98620 0.78062 1.21200
H 	H 	0.64340 0.71400 0.26550 0.16800
H 	H 	0.44350 0.75880 0.28480 0.17800
H 	H 	0.66110 0.68360 0.15260 0.08000
H 	H 	0.54550 0.69920 0.04260 0.02800
H 	H 	0.20660 0.74940 0.00720 0.04300
H 	H 	0.99380 0.79090 0.08380 0.06300
H 	H 	0.90380 0.79270 0.19320 0.15500
H 	H 	0.05870 0.75420 0.25110 0.16600
H 	H 	0.75160 0.47320 0.22370 -0.02500
H 	H 	0.52730 0.47030 0.12590 0.11800
H 	H 	0.97900 0.57750 0.04260 0.10200
H 	H 	0.19910 0.57700 0.14180 -0.01100
H 	H 	0.63490 0.54960 0.97420 0.06800
H 	H 	0.89270 0.60640 0.34410 -0.01500
H 	H 	0.65620 0.59560 0.41880 0.09500
H 	H 	0.85500 0.38320 0.45230 0.09200
H 	H 	0.08420 0.39900 0.37620 -0.00300
H 	H 	0.57880 0.42940 0.51370 0.06200
H 	H 	0.85660 0.21400 0.23450 0.16600
H 	H 	0.05650 0.25880 0.21520 0.17600
H 	H 	0.83890 0.18360 0.34740 0.08000
H 	H 	0.95450 0.19920 0.45740 0.02900
H 	H 	0.29340 0.24940 0.49280 0.04100
H 	H 	0.50620 0.29090 0.41620 0.06900
H 	H 	0.59620 0.29270 0.30680 0.16000
H 	H 	0.44130 0.25420 0.24890 0.16800
H 	H 	0.74840 0.97320 0.27630 -0.02600
H 	H 	0.97270 0.97030 0.37410 0.11700
H 	H 	0.52100 0.07750 0.45740 0.10100
H 	H 	0.30090 0.07700 0.35820 -0.01000
H 	H 	0.86510 0.04960 0.52580 0.06800
H 	H 	0.60730 0.10640 0.15590 -0.01600
H 	H 	0.84380 0.09560 0.08120 0.09600
H 	H 	0.64500 0.88320 0.04770 0.09400
H 	H 	0.41580 0.89900 0.12380 -0.00600
H 	H 	0.92120 0.92940 0.98630 0.06100
H 	H 	0.35660 0.28600 0.73450 0.16800
H 	H 	0.55650 0.24120 0.71520 0.17800
H 	H 	0.33890 0.31640 0.84740 0.08000
H 	H 	0.45450 0.30080 0.95740 0.02800
H 	H 	0.79340 0.25060 0.99280 0.04300
H 	H 	0.00620 0.20910 0.91620 0.06300
H 	H 	0.09620 0.20730 0.80680 0.15500
H 	H 	0.94130 0.24580 0.74890 0.16600
H 	H 	0.24840 0.52680 0.77630 -0.02500
H 	H 	0.47270 0.52970 0.87410 0.11800
H 	H 	0.02100 0.42250 0.95740 0.10200
H 	H 	0.80090 0.42300 0.85820 -0.01100
H 	H 	0.36510 0.45040 0.02580 0.06800
H 	H 	0.10730 0.39360 0.65590 -0.01500
H 	H 	0.34380 0.40440 0.58120 0.09500
H 	H 	0.14500 0.61680 0.54770 0.09200
H 	H 	0.91580 0.60100 0.62380 -0.00300
H 	H 	0.42120 0.57060 0.48630 0.06200
H 	H 	0.14340 0.78600 0.76550 0.16600
H 	H 	0.94350 0.74120 0.78480 0.17600
H 	H 	0.16110 0.81640 0.65260 0.08000
H 	H 	0.04550 0.80080 0.54260 0.02900
H 	H 	0.70660 0.75060 0.50720 0.04100
H 	H 	0.49380 0.70910 0.58380 0.06900
H 	H 	0.40380 0.70730 0.69320 0.16000
H 	H 	0.55870 0.74580 0.75110 0.16800
H 	H 	0.25160 0.02680 0.72370 -0.02600
H 	H 	0.02730 0.02970 0.62590 0.11700
H 	H 	0.47900 0.92250 0.54260 0.10100
H 	H 	0.69910 0.92300 0.64180 -0.01000
H 	H 	0.13490 0.95040 0.47420 0.06800
H 	H 	0.39270 0.89360 0.84410 -0.01600
H 	H 	0.15620 0.90440 0.91880 0.09600
H 	H 	0.35500 0.11680 0.95230 0.09400
H 	H 	0.58420 0.10100 0.87620 -0.00600
H 	H 	0.07880 0.07060 0.01370 0.06100
C 	C 	0.39140 0.64530 0.28050 0.45900
C 	C 	0.48570 0.71710 0.25880 -0.45800
C 	C 	0.40170 0.73000 0.18570 0.10400
C 	C 	0.52660 0.70590 0.13880 -0.13500
C 	C 	0.45720 0.71430 0.07330 0.00300
C 	C 	0.25690 0.74490 0.05220 -0.04100
C 	C 	0.12880 0.76930 0.09850 -0.09400
C 	C 	0.19710 0.76220 0.16620 0.08200
C 	C 	0.05320 0.79010 0.21510 -0.41800
C 	C 	0.12060 0.86710 0.24350 0.44900
C 	C 	0.80070 0.49370 0.18670 0.12200
C 	C 	0.66440 0.49220 0.12800 -0.20400
C 	C 	0.72660 0.52240 0.07200 0.14900
C 	C 	0.93070 0.55510 0.07890 -0.20300
C 	C 	0.06240 0.55480 0.13880 0.11100
C 	C 	0.59120 0.52030 0.00760 -0.10000
C 	C 	0.88450 0.56070 0.36590 0.10700
C 	C 	0.74190 0.55460 0.41080 -0.18900
C 	C 	0.72450 0.48700 0.44460 0.12800
C 	C 	0.85840 0.42920 0.43060 -0.17700
C 	C 	0.99660 0.43930 0.38490 0.09200
C 	C 	0.57240 0.47570 0.49220 -0.09400
C 	C 	0.10860 0.14530 0.21950 0.45700
C 	C 	0.01430 0.21710 0.24120 -0.45300
C 	C 	0.09830 0.23000 0.31430 0.10200
C 	C 	0.97340 0.20590 0.36120 -0.13400
C 	C 	0.04280 0.21430 0.42670 0.00100
C 	C 	0.24310 0.24490 0.44780 -0.03600
C 	C 	0.37120 0.26930 0.40150 -0.10300
C 	C 	0.30290 0.26220 0.33380 0.08700
C 	C 	0.44680 0.29010 0.28490 -0.42900
C 	C 	0.37940 0.36710 0.25650 0.45100
C 	C 	0.69930 0.99370 0.31330 0.12500
C 	C 	0.83560 0.99220 0.37200 -0.20500
C 	C 	0.77340 0.02240 0.42800 0.14800
C 	C 	0.56930 0.05510 0.42110 -0.19900
C 	C 	0.43760 0.05480 0.36120 0.10700
C 	C 	0.90880 0.02030 0.49240 -0.09900
C 	C 	0.61550 0.06070 0.13410 0.11000
C 	C 	0.75810 0.05460 0.08920 -0.19300
C 	C 	0.77550 0.98700 0.05540 0.13200
C 	C 	0.64160 0.92920 0.06940 -0.18200
C 	C 	0.50340 0.93930 0.11510 0.10000
C 	C 	0.92760 0.97570 0.00780 -0.09400
C 	C 	0.60860 0.35470 0.71950 0.45900
C 	C 	0.51430 0.28290 0.74120 -0.45800
C 	C 	0.59830 0.27000 0.81430 0.10400
C 	C 	0.47340 0.29410 0.86120 -0.13500
C 	C 	0.54280 0.28570 0.92670 0.00300
C 	C 	0.74310 0.25510 0.94780 -0.04100
C 	C 	0.87120 0.23070 0.90150 -0.09400
C 	C 	0.80290 0.23780 0.83380 0.08200
C 	C 	0.94680 0.20990 0.78490 -0.41800
C 	C 	0.87940 0.13290 0.75650 0.44900
C 	C 	0.19930 0.50630 0.81330 0.12200
C 	C 	0.33560 0.50780 0.87200 -0.20400
C 	C 	0.27340 0.47760 0.92800 0.14900
C 	C 	0.06930 0.44490 0.92110 -0.20300
C 	C 	0.93760 0.44520 0.86120 0.11100
C 	C 	0.40880 0.47970 0.99240 -0.10000
C 	C 	0.11550 0.43930 0.63410 0.10700
C 	C 	0.25810 0.44540 0.58920 -0.18900
C 	C 	0.27550 0.51300 0.55540 0.12800
C 	C 	0.14160 0.57080 0.56940 -0.17700
C 	C 	0.00340 0.56070 0.61510 0.09200
C 	C 	0.42760 0.52430 0.50780 -0.09400
C 	C 	0.89140 0.85470 0.78050 0.45700
C 	C 	0.98570 0.78290 0.75880 -0.45300
C 	C 	0.90170 0.77000 0.68570 0.10200
C 	C 	0.02660 0.79410 0.63880 -0.13400
C 	C 	0.95720 0.78570 0.57330 0.00100
C 	C 	0.75690 0.75510 0.55220 -0.03600
C 	C 	0.62880 0.73070 0.59850 -0.10300
C 	C 	0.69710 0.73780 0.66620 0.08700
C 	C 	0.55320 0.70990 0.71510 -0.42900
C 	C 	0.62060 0.63290 0.74350 0.45100
C 	C 	0.30070 0.00630 0.68670 0.12500
C 	C 	0.16440 0.00780 0.62800 -0.20500
C 	C 	0.22660 0.97760 0.57200 0.14800
C 	C 	0.43070 0.94490 0.57890 -0.19900
C 	C 	0.56240 0.94520 0.63880 0.10700
C 	C 	0.09120 0.97970 0.50760 -0.09900
C 	C 	0.38450 0.93930 0.86590 0.11000
C 	C 	0.24190 0.94540 0.91080 -0.19300
C 	C 	0.22450 0.01300 0.94460 0.13200
C 	C 	0.35840 0.07080 0.93060 -0.18200
C 	C 	0.49660 0.06070 0.88490 0.10000
C 	C 	0.07240 0.02430 0.99220 -0.09400
N 	N 	0.00220 0.52330 0.19400 -0.27700
N 	N 	0.01275 0.50410 0.35185 -0.26800
N 	N 	0.49780 0.02330 0.30600 -0.27800
N 	N 	0.48725 0.00410 0.14815 -0.27200
N 	N 	0.99780 0.47670 0.80600 -0.27700
N 	N 	0.98725 0.49590 0.64815 -0.26800
N 	N 	0.50220 0.97670 0.69400 -0.27800
N 	N 	0.51275 0.99590 0.85185 -0.27200
O 	O 	0.25690 0.64630 0.31900 -0.40700
O 	O 	0.44096 0.58450 0.25716 -0.48200
O 	O 	0.13425 0.87990 0.30285 -0.34200
O 	O 	0.15241 0.91594 0.20091 -0.49100
O 	O 	0.24310 0.14630 0.18100 -0.40700
O 	O 	0.05904 0.08450 0.24284 -0.48100
O 	O 	0.36575 0.37990 0.19715 -0.34400
O 	O 	0.34759 0.41594 0.29909 -0.49300
O 	O 	0.74310 0.35370 0.68100 -0.40700
O 	O 	0.55904 0.41550 0.74284 -0.48200
O 	O 	0.86575 0.12010 0.69715 -0.34200
O 	O 	0.84759 0.08406 0.79909 -0.49100
O 	O 	0.75690 0.85370 0.81900 -0.40700
O 	O 	0.94096 0.91550 0.75716 -0.48100
O 	O 	0.63425 0.62010 0.80285 -0.34400
O 	O 	0.65241 0.58406 0.70091 -0.49300
