data_crystal

_cell_length_a 10.11490
_cell_length_b 10.11490
_cell_length_c 11.46700
_cell_angle_alpha 98.92040
_cell_angle_beta  98.92040
_cell_angle_gamma 115.27800

_symmetry_space_group_name_	'P 1'
_symmetry_space_group_name_H-M	'P 1'

loop_
_symmetry_equiv_pos_as_xyz
  x,y,z

loop_
_atom_site_label
_atom_site_type_symbol
_atom_site_fract_x
_atom_site_fract_y
_atom_site_fract_z
_atom_site_charge
In	In	0.36303 0.63697 0.25000 1.98400
In	In	0.63697 0.36303 0.75000 1.98400
H 	H 	0.41860 0.78620 0.56800 0.03200
H 	H 	0.58370 0.75390 0.05770 0.04700
H 	H 	0.21380 0.58140 0.93200 0.03200
H 	H 	0.24610 0.41630 0.44230 0.04700
H 	H 	0.58140 0.21380 0.43200 0.03200
H 	H 	0.41630 0.24610 0.94230 0.04700
H 	H 	0.78620 0.41860 0.06800 0.03200
H 	H 	0.75390 0.58370 0.55770 0.04700
C 	C 	0.45130 0.87250 0.53860 0.07500
C 	C 	0.54890 0.65010 0.03510 0.06400
C 	C 	0.60630 0.58890 0.95060 -0.05200
C 	C 	0.48650 0.98670 0.38040 -0.05300
C 	C 	0.46600 0.96820 0.24390 0.34900
C 	C 	0.72250 0.68450 0.89100 0.32600
C 	C 	0.12750 0.54870 0.96140 0.07600
C 	C 	0.34990 0.45110 0.46490 0.06400
C 	C 	0.41110 0.39370 0.54940 -0.05300
C 	C 	0.01330 0.51350 0.11960 -0.05400
C 	C 	0.03180 0.53400 0.25610 0.35000
C 	C 	0.31550 0.27750 0.60900 0.32600
C 	C 	0.54870 0.12750 0.46140 0.07500
C 	C 	0.45110 0.34990 0.96490 0.06400
C 	C 	0.39370 0.41110 0.04940 -0.05200
C 	C 	0.51350 0.01330 0.61960 -0.05300
C 	C 	0.53400 0.03180 0.75610 0.34900
C 	C 	0.27750 0.31550 0.10900 0.32600
C 	C 	0.87250 0.45130 0.03860 0.07600
C 	C 	0.65010 0.54890 0.53510 0.06400
C 	C 	0.58890 0.60630 0.45060 -0.05300
C 	C 	0.98670 0.48650 0.88040 -0.05400
C 	C 	0.96820 0.46600 0.74390 0.35000
C 	C 	0.68450 0.72250 0.39100 0.32600
N 	N 	0.43790 0.85930 0.41910 -0.20400
N 	N 	0.44393 0.55927 0.08350 -0.23200
N 	N 	0.14070 0.56210 0.08090 -0.20400
N 	N 	0.44073 0.55607 0.41650 -0.23200
N 	N 	0.56210 0.14070 0.58090 -0.20400
N 	N 	0.55607 0.44073 0.91650 -0.23200
N 	N 	0.85930 0.43790 0.91910 -0.20400
N 	N 	0.55927 0.44393 0.58350 -0.23200
O 	O 	0.40872 0.83348 0.17860 -0.47900
O 	O 	0.50160 0.08060 0.20460 -0.21300
O 	O 	0.74989 0.61411 0.80540 -0.45600
O 	O 	0.78350 0.82330 0.93130 -0.19500
O 	O 	0.16652 0.59128 0.32140 -0.47900
O 	O 	0.91940 0.49840 0.29540 -0.21400
O 	O 	0.38589 0.25011 0.69460 -0.45600
O 	O 	0.17670 0.21650 0.56870 -0.19600
O 	O 	0.59128 0.16652 0.82140 -0.47900
O 	O 	0.49840 0.91940 0.79540 -0.21300
O 	O 	0.25011 0.38589 0.19460 -0.45600
O 	O 	0.21650 0.17670 0.06870 -0.19500
O 	O 	0.83348 0.40872 0.67860 -0.47900
O 	O 	0.08060 0.50160 0.70460 -0.21400
O 	O 	0.61411 0.74989 0.30540 -0.45600
O 	O 	0.82330 0.78350 0.43130 -0.19600
