data_crystal

_cell_length_a 14.04000
_cell_length_b 14.34500
_cell_length_c 27.75600
_cell_angle_alpha 90.00000
_cell_angle_beta  90.00000
_cell_angle_gamma 90.00000

_symmetry_space_group_name_	'P 1'
_symmetry_space_group_name_H-M	'P 1'

loop_
_symmetry_equiv_pos_as_xyz
  x,y,z

loop_
_atom_site_label
_atom_site_type_symbol
_atom_site_fract_x
_atom_site_fract_y
_atom_site_fract_z
_atom_site_charge
Zn	Zn	0.71372 0.59116 0.40221 1.18200
Zn	Zn	0.71261 0.98923 0.65279 1.21100
Zn	Zn	0.78628 0.40884 0.90221 1.18200
Zn	Zn	0.78739 0.01077 0.15279 1.21100
Zn	Zn	0.28628 0.09116 0.09779 1.18200
Zn	Zn	0.28739 0.48923 0.84721 1.21200
Zn	Zn	0.21372 0.90884 0.59779 1.18100
Zn	Zn	0.21261 0.51077 0.34721 1.21100
Zn	Zn	0.28628 0.40884 0.59779 1.18100
Zn	Zn	0.28739 0.01077 0.34721 1.21000
Zn	Zn	0.21372 0.59116 0.09779 1.18100
Zn	Zn	0.21261 0.98923 0.84721 1.21000
Zn	Zn	0.71372 0.90884 0.90221 1.18100
Zn	Zn	0.71261 0.51077 0.15279 1.21100
Zn	Zn	0.78628 0.09116 0.40221 1.18100
Zn	Zn	0.78739 0.48923 0.65279 1.21100
H 	H 	0.69690 0.97540 0.54340 0.01700
H 	H 	0.69980 0.86020 0.48520 0.05800
H 	H 	0.70410 0.78630 0.64630 0.00700
H 	H 	0.26870 0.52290 0.24250 0.02300
H 	H 	0.40270 0.54120 0.19660 0.05300
H 	H 	0.42030 0.55140 0.36250 0.01200
H 	H 	0.76280 0.40170 0.36300 -0.01500
H 	H 	0.88180 0.29480 0.36330 0.08100
H 	H 	0.02760 0.33210 0.40000 0.03100
H 	H 	0.04220 0.47470 0.44060 0.07800
H 	H 	0.91520 0.57760 0.43830 -0.01300
H 	H 	0.80310 0.02460 0.04340 0.01600
H 	H 	0.80020 0.13980 0.98520 0.05900
H 	H 	0.79590 0.21370 0.14630 0.00700
H 	H 	0.23130 0.47710 0.74250 0.02300
H 	H 	0.09730 0.45880 0.69660 0.05200
H 	H 	0.07970 0.44860 0.86250 0.01200
H 	H 	0.73720 0.59830 0.86300 -0.01500
H 	H 	0.61820 0.70520 0.86330 0.08100
H 	H 	0.47240 0.66790 0.90000 0.03200
H 	H 	0.45780 0.52530 0.94060 0.07800
H 	H 	0.58480 0.42240 0.93830 -0.01300
H 	H 	0.30310 0.47540 0.95660 0.01700
H 	H 	0.30020 0.36020 0.01480 0.05700
H 	H 	0.29590 0.28630 0.85370 0.00700
H 	H 	0.73130 0.02290 0.25750 0.02300
H 	H 	0.59730 0.04120 0.30340 0.05200
H 	H 	0.57970 0.05140 0.13750 0.01100
H 	H 	0.23720 0.90170 0.13700 -0.01500
H 	H 	0.11820 0.79480 0.13670 0.08100
H 	H 	0.97240 0.83210 0.10000 0.03300
H 	H 	0.95780 0.97470 0.05940 0.07800
H 	H 	0.08480 0.07760 0.06170 -0.01200
H 	H 	0.19690 0.52460 0.45660 0.01700
H 	H 	0.19980 0.63980 0.51480 0.05800
H 	H 	0.20410 0.71370 0.35370 0.00700
H 	H 	0.76870 0.97710 0.75750 0.02300
H 	H 	0.90270 0.95880 0.80340 0.05200
H 	H 	0.92030 0.94860 0.63750 0.01100
H 	H 	0.26280 0.09830 0.63700 -0.01500
H 	H 	0.38180 0.20520 0.63670 0.08100
H 	H 	0.52760 0.16790 0.60000 0.03200
H 	H 	0.54220 0.02530 0.55940 0.07800
H 	H 	0.41520 0.92240 0.56170 -0.01300
H 	H 	0.30310 0.02460 0.45660 0.01700
H 	H 	0.30020 0.13980 0.51480 0.05800
H 	H 	0.29590 0.21370 0.35370 0.00700
H 	H 	0.73130 0.47710 0.75750 0.02300
H 	H 	0.59730 0.45880 0.80340 0.05300
H 	H 	0.57970 0.44860 0.63750 0.01200
H 	H 	0.23720 0.59830 0.63700 -0.01500
H 	H 	0.11820 0.70520 0.63670 0.08100
H 	H 	0.97240 0.66790 0.60000 0.03100
H 	H 	0.95780 0.52530 0.55940 0.07800
H 	H 	0.08480 0.42240 0.56170 -0.01300
H 	H 	0.19690 0.97540 0.95660 0.01600
H 	H 	0.19980 0.86020 0.01480 0.05900
H 	H 	0.20410 0.78630 0.85370 0.00700
H 	H 	0.76870 0.52290 0.25750 0.02300
H 	H 	0.90270 0.54120 0.30340 0.05200
H 	H 	0.92030 0.55140 0.13750 0.01200
H 	H 	0.26280 0.40170 0.13700 -0.01500
H 	H 	0.38180 0.29480 0.13670 0.08100
H 	H 	0.52760 0.33210 0.10000 0.03200
H 	H 	0.54220 0.47470 0.05940 0.07800
H 	H 	0.41520 0.57760 0.06170 -0.01300
H 	H 	0.69690 0.52460 0.04340 0.01700
H 	H 	0.69980 0.63980 0.98520 0.05700
H 	H 	0.70410 0.71370 0.14630 0.00700
H 	H 	0.26870 0.97710 0.74250 0.02300
H 	H 	0.40270 0.95880 0.69660 0.05200
H 	H 	0.42030 0.94860 0.86250 0.01100
H 	H 	0.76280 0.09830 0.86300 -0.01500
H 	H 	0.88180 0.20520 0.86330 0.08100
H 	H 	0.02760 0.16790 0.90000 0.03300
H 	H 	0.04220 0.02530 0.94060 0.07800
H 	H 	0.91520 0.92240 0.93830 -0.01200
H 	H 	0.80310 0.47540 0.54340 0.01700
H 	H 	0.80020 0.36020 0.48520 0.05800
H 	H 	0.79590 0.28630 0.64630 0.00700
H 	H 	0.23130 0.02290 0.24250 0.02300
H 	H 	0.09730 0.04120 0.19660 0.05200
H 	H 	0.07970 0.05140 0.36250 0.01100
H 	H 	0.73720 0.90170 0.36300 -0.01500
H 	H 	0.61820 0.79480 0.36330 0.08100
H 	H 	0.47240 0.83210 0.40000 0.03200
H 	H 	0.45780 0.97470 0.44060 0.07800
H 	H 	0.58480 0.07760 0.43830 -0.01300
C 	C 	0.70120 0.91200 0.55300 0.04000
C 	C 	0.70480 0.84390 0.51830 -0.06900
C 	C 	0.71590 0.75030 0.53160 -0.01100
C 	C 	0.71360 0.73000 0.58020 -0.07600
C 	C 	0.70670 0.80140 0.61300 0.05600
C 	C 	0.73610 0.67580 0.49450 0.30600
C 	C 	0.71890 0.63090 0.59880 0.32900
C 	C 	0.32820 0.53240 0.25810 0.04200
C 	C 	0.40740 0.54280 0.23070 -0.06700
C 	C 	0.49620 0.55580 0.25270 -0.00100
C 	C 	0.49880 0.56020 0.30260 -0.08000
C 	C 	0.41720 0.54920 0.32840 0.05500
C 	C 	0.58300 0.57330 0.22110 0.30900
C 	C 	0.59130 0.56740 0.32970 0.32900
C 	C 	0.82080 0.41680 0.37880 0.07200
C 	C 	0.89060 0.35350 0.37850 -0.12900
C 	C 	0.97600 0.37490 0.40080 0.05900
C 	C 	0.98520 0.45880 0.42400 -0.13700
C 	C 	0.90920 0.51920 0.42250 0.07700
C 	C 	0.79880 0.08800 0.05300 0.04100
C 	C 	0.79520 0.15610 0.01830 -0.07000
C 	C 	0.78410 0.24970 0.03160 -0.01100
C 	C 	0.78640 0.27000 0.08020 -0.07600
C 	C 	0.79330 0.19860 0.11300 0.05600
C 	C 	0.76390 0.32420 0.99450 0.30600
C 	C 	0.78110 0.36910 0.09880 0.32900
C 	C 	0.17180 0.46760 0.75810 0.04200
C 	C 	0.09260 0.45720 0.73070 -0.06700
C 	C 	0.00380 0.44420 0.75270 -0.00100
C 	C 	0.00120 0.43980 0.80260 -0.08000
C 	C 	0.08280 0.45080 0.82840 0.05500
C 	C 	0.91700 0.42670 0.72110 0.30800
C 	C 	0.90870 0.43260 0.82970 0.32800
C 	C 	0.67920 0.58320 0.87880 0.07100
C 	C 	0.60940 0.64650 0.87850 -0.12900
C 	C 	0.52400 0.62510 0.90080 0.05800
C 	C 	0.51480 0.54120 0.92400 -0.13600
C 	C 	0.59080 0.48080 0.92250 0.07600
C 	C 	0.29880 0.41200 0.94700 0.04000
C 	C 	0.29520 0.34390 0.98170 -0.06800
C 	C 	0.28410 0.25030 0.96840 -0.00900
C 	C 	0.28640 0.23000 0.91980 -0.07700
C 	C 	0.29330 0.30140 0.88700 0.05600
C 	C 	0.26390 0.17580 0.00550 0.30200
C 	C 	0.28110 0.13090 0.90120 0.32900
C 	C 	0.67180 0.03240 0.24190 0.04200
C 	C 	0.59260 0.04280 0.26930 -0.06700
C 	C 	0.50380 0.05580 0.24730 -0.00100
C 	C 	0.50120 0.06020 0.19740 -0.08000
C 	C 	0.58280 0.04920 0.17160 0.05500
C 	C 	0.41700 0.07330 0.27890 0.30900
C 	C 	0.40870 0.06740 0.17030 0.32900
C 	C 	0.17920 0.91680 0.12120 0.07300
C 	C 	0.10940 0.85350 0.12150 -0.12800
C 	C 	0.02400 0.87490 0.09920 0.05600
C 	C 	0.01480 0.95880 0.07600 -0.13300
C 	C 	0.09080 0.01920 0.07750 0.07300
C 	C 	0.20120 0.58800 0.44700 0.04000
C 	C 	0.20480 0.65610 0.48170 -0.06900
C 	C 	0.21590 0.74970 0.46840 -0.01100
C 	C 	0.21360 0.77000 0.41980 -0.07600
C 	C 	0.20670 0.69860 0.38700 0.05600
C 	C 	0.23610 0.82420 0.50550 0.30600
C 	C 	0.21890 0.86910 0.40120 0.32800
C 	C 	0.82820 0.96760 0.74190 0.04200
C 	C 	0.90740 0.95720 0.76930 -0.06600
C 	C 	0.99620 0.94420 0.74730 -0.00300
C 	C 	0.99880 0.93980 0.69740 -0.08100
C 	C 	0.91720 0.95080 0.67160 0.05500
C 	C 	0.08300 0.92670 0.77890 0.31000
C 	C 	0.09130 0.93260 0.67030 0.32900
C 	C 	0.32080 0.08320 0.62120 0.07200
C 	C 	0.39060 0.14650 0.62150 -0.12900
C 	C 	0.47600 0.12510 0.59920 0.05800
C 	C 	0.48520 0.04120 0.57600 -0.13500
C 	C 	0.40920 0.98080 0.57750 0.07600
C 	C 	0.29880 0.08800 0.44700 0.04000
C 	C 	0.29520 0.15610 0.48170 -0.06900
C 	C 	0.28410 0.24970 0.46840 -0.01100
C 	C 	0.28640 0.27000 0.41980 -0.07600
C 	C 	0.29330 0.19860 0.38700 0.05600
C 	C 	0.26390 0.32420 0.50550 0.30600
C 	C 	0.28110 0.36910 0.40120 0.32900
C 	C 	0.67180 0.46760 0.74190 0.04200
C 	C 	0.59260 0.45720 0.76930 -0.06700
C 	C 	0.50380 0.44420 0.74730 -0.00100
C 	C 	0.50120 0.43980 0.69740 -0.08000
C 	C 	0.58280 0.45080 0.67160 0.05500
C 	C 	0.41700 0.42670 0.77890 0.30900
C 	C 	0.40870 0.43260 0.67030 0.32900
C 	C 	0.17920 0.58320 0.62120 0.07200
C 	C 	0.10940 0.64650 0.62150 -0.12900
C 	C 	0.02400 0.62510 0.59920 0.05900
C 	C 	0.01480 0.54120 0.57600 -0.13700
C 	C 	0.09080 0.48080 0.57750 0.07700
C 	C 	0.20120 0.91200 0.94700 0.04100
C 	C 	0.20480 0.84390 0.98170 -0.07000
C 	C 	0.21590 0.75030 0.96840 -0.01100
C 	C 	0.21360 0.73000 0.91980 -0.07600
C 	C 	0.20670 0.80140 0.88700 0.05600
C 	C 	0.23610 0.67580 0.00550 0.30600
C 	C 	0.21890 0.63090 0.90120 0.32900
C 	C 	0.82820 0.53240 0.24190 0.04200
C 	C 	0.90740 0.54280 0.26930 -0.06700
C 	C 	0.99620 0.55580 0.24730 -0.00100
C 	C 	0.99880 0.56020 0.19740 -0.08000
C 	C 	0.91720 0.54920 0.17160 0.05500
C 	C 	0.08300 0.57330 0.27890 0.30800
C 	C 	0.09130 0.56740 0.17030 0.32800
C 	C 	0.32080 0.41680 0.12120 0.07100
C 	C 	0.39060 0.35350 0.12150 -0.12900
C 	C 	0.47600 0.37490 0.09920 0.05800
C 	C 	0.48520 0.45880 0.07600 -0.13600
C 	C 	0.40920 0.51920 0.07750 0.07600
C 	C 	0.70120 0.58800 0.05300 0.04000
C 	C 	0.70480 0.65610 0.01830 -0.06800
C 	C 	0.71590 0.74970 0.03160 -0.00900
C 	C 	0.71360 0.77000 0.08020 -0.07700
C 	C 	0.70670 0.69860 0.11300 0.05600
C 	C 	0.73610 0.82420 0.99450 0.30200
C 	C 	0.71890 0.86910 0.09880 0.32900
C 	C 	0.32820 0.96760 0.75810 0.04200
C 	C 	0.40740 0.95720 0.73070 -0.06700
C 	C 	0.49620 0.94420 0.75270 -0.00100
C 	C 	0.49880 0.93980 0.80260 -0.08000
C 	C 	0.41720 0.95080 0.82840 0.05500
C 	C 	0.58300 0.92670 0.72110 0.30900
C 	C 	0.59130 0.93260 0.82970 0.32900
C 	C 	0.82080 0.08320 0.87880 0.07300
C 	C 	0.89060 0.14650 0.87850 -0.12800
C 	C 	0.97600 0.12510 0.90080 0.05600
C 	C 	0.98520 0.04120 0.92400 -0.13300
C 	C 	0.90920 0.98080 0.92250 0.07300
C 	C 	0.79880 0.41200 0.55300 0.04000
C 	C 	0.79520 0.34390 0.51830 -0.06900
C 	C 	0.78410 0.25030 0.53160 -0.01100
C 	C 	0.78640 0.23000 0.58020 -0.07600
C 	C 	0.79330 0.30140 0.61300 0.05600
C 	C 	0.76390 0.17580 0.49450 0.30600
C 	C 	0.78110 0.13090 0.59880 0.32800
C 	C 	0.17180 0.03240 0.25810 0.04200
C 	C 	0.09260 0.04280 0.23070 -0.06600
C 	C 	0.00380 0.05580 0.25270 -0.00300
C 	C 	0.00120 0.06020 0.30260 -0.08100
C 	C 	0.08280 0.04920 0.32840 0.05500
C 	C 	0.91700 0.07330 0.22110 0.31000
C 	C 	0.90870 0.06740 0.32970 0.32900
C 	C 	0.67920 0.91680 0.37880 0.07200
C 	C 	0.60940 0.85350 0.37850 -0.12900
C 	C 	0.52400 0.87490 0.40080 0.05800
C 	C 	0.51480 0.95880 0.42400 -0.13500
C 	C 	0.59080 0.01920 0.42250 0.07600
N 	N 	0.70340 0.89100 0.60020 -0.25900
N 	N 	0.33050 0.53510 0.30670 -0.25200
N 	N 	0.82800 0.50050 0.40020 -0.28100
N 	N 	0.79660 0.10900 0.10020 -0.25900
N 	N 	0.16950 0.46490 0.80670 -0.25200
N 	N 	0.67200 0.49950 0.90020 -0.28100
N 	N 	0.29660 0.39100 0.89980 -0.25800
N 	N 	0.66950 0.03510 0.19330 -0.25200
N 	N 	0.17200 0.00050 0.09980 -0.28200
N 	N 	0.20340 0.60900 0.39980 -0.25800
N 	N 	0.83050 0.96490 0.69330 -0.25200
N 	N 	0.32800 0.99950 0.59980 -0.28100
N 	N 	0.29660 0.10900 0.39980 -0.25900
N 	N 	0.66950 0.46490 0.69330 -0.25200
N 	N 	0.17200 0.49950 0.59980 -0.28100
N 	N 	0.20340 0.89100 0.89980 -0.25900
N 	N 	0.83050 0.53510 0.19330 -0.25200
N 	N 	0.32800 0.50050 0.09980 -0.28100
N 	N 	0.70340 0.60900 0.10020 -0.25800
N 	N 	0.33050 0.96490 0.80670 -0.25200
N 	N 	0.82800 0.99950 0.90020 -0.28200
N 	N 	0.79660 0.39100 0.60020 -0.25800
N 	N 	0.16950 0.03510 0.30670 -0.25200
N 	N 	0.67200 0.00050 0.40020 -0.28100
O 	O 	0.69000 0.68090 0.45510 -0.45400
O 	O 	0.80060 0.61950 0.50480 -0.29800
O 	O 	0.78600 0.61610 0.62900 -0.44400
O 	O 	0.65880 0.57380 0.58560 -0.31400
O 	O 	0.60070 0.50330 0.19320 -0.43900
O 	O 	0.62930 0.64400 0.22530 -0.29700
O 	O 	0.65830 0.51580 0.31630 -0.33400
O 	O 	0.59580 0.62100 0.36490 -0.45500
O 	O 	0.81000 0.31910 0.95510 -0.45400
O 	O 	0.69940 0.38050 0.00480 -0.29800
O 	O 	0.71400 0.38390 0.12900 -0.44400
O 	O 	0.84120 0.42620 0.08560 -0.31400
O 	O 	0.89930 0.49670 0.69320 -0.43900
O 	O 	0.87070 0.35600 0.72530 -0.29700
O 	O 	0.84170 0.48420 0.81630 -0.33400
O 	O 	0.90420 0.37900 0.86490 -0.45500
O 	O 	0.31000 0.18090 0.04490 -0.45300
O 	O 	0.19940 0.11950 0.99520 -0.29600
O 	O 	0.21400 0.11610 0.87100 -0.44400
O 	O 	0.34120 0.07380 0.91440 -0.31300
O 	O 	0.39930 0.00330 0.30680 -0.43900
O 	O 	0.37070 0.14400 0.27470 -0.29700
O 	O 	0.34170 0.01580 0.18370 -0.33400
O 	O 	0.40420 0.12100 0.13510 -0.45500
O 	O 	0.19000 0.81910 0.54490 -0.45400
O 	O 	0.30060 0.88050 0.49520 -0.29800
O 	O 	0.28600 0.88390 0.37100 -0.44400
O 	O 	0.15880 0.92620 0.41440 -0.31300
O 	O 	0.10070 0.99670 0.80680 -0.43900
O 	O 	0.12930 0.85600 0.77470 -0.29800
O 	O 	0.15830 0.98420 0.68370 -0.33400
O 	O 	0.09580 0.87900 0.63510 -0.45500
O 	O 	0.31000 0.31910 0.54490 -0.45400
O 	O 	0.19940 0.38050 0.49520 -0.29800
O 	O 	0.21400 0.38390 0.37100 -0.44400
O 	O 	0.34120 0.42620 0.41440 -0.31400
O 	O 	0.39930 0.49670 0.80680 -0.43900
O 	O 	0.37070 0.35600 0.77470 -0.29700
O 	O 	0.34170 0.48420 0.68370 -0.33400
O 	O 	0.40420 0.37900 0.63510 -0.45500
O 	O 	0.19000 0.68090 0.04490 -0.45400
O 	O 	0.30060 0.61950 0.99520 -0.29800
O 	O 	0.28600 0.61610 0.87100 -0.44400
O 	O 	0.15880 0.57380 0.91440 -0.31400
O 	O 	0.10070 0.50330 0.30680 -0.43900
O 	O 	0.12930 0.64400 0.27470 -0.29700
O 	O 	0.15830 0.51580 0.18370 -0.33400
O 	O 	0.09580 0.62100 0.13510 -0.45500
O 	O 	0.69000 0.81910 0.95510 -0.45300
O 	O 	0.80060 0.88050 0.00480 -0.29600
O 	O 	0.78600 0.88390 0.12900 -0.44400
O 	O 	0.65880 0.92620 0.08560 -0.31300
O 	O 	0.60070 0.99670 0.69320 -0.43900
O 	O 	0.62930 0.85600 0.72530 -0.29700
O 	O 	0.65830 0.98420 0.81630 -0.33400
O 	O 	0.59580 0.87900 0.86490 -0.45500
O 	O 	0.81000 0.18090 0.45510 -0.45400
O 	O 	0.69940 0.11950 0.50480 -0.29800
O 	O 	0.71400 0.11610 0.62900 -0.44400
O 	O 	0.84120 0.07380 0.58560 -0.31300
O 	O 	0.89930 0.00330 0.19320 -0.43900
O 	O 	0.87070 0.14400 0.22530 -0.29800
O 	O 	0.84170 0.01580 0.31630 -0.33400
O 	O 	0.90420 0.12100 0.36490 -0.45500
