data_crystal

_cell_length_a 7.71650
_cell_length_b 21.74600
_cell_length_c 21.74600
_cell_angle_alpha 120.00000
_cell_angle_beta  90.00000
_cell_angle_gamma 90.00000

_symmetry_space_group_name_	'P 1'
_symmetry_space_group_name_H-M	'P 1'

loop_
_symmetry_equiv_pos_as_xyz
  x,y,z

loop_
_atom_site_label
_atom_site_type_symbol
_atom_site_fract_x
_atom_site_fract_y
_atom_site_fract_z
_atom_site_charge
Zn	Zn	0.00000 0.50000 0.50000 1.20900
Zn	Zn	0.00000 0.00000 0.50000 1.19700
Zn	Zn	-0.00000 0.50000 -0.00000 1.20000
H 	H 	0.43770 0.34520 0.38210 0.27900
H 	H 	0.32050 0.31980 0.31280 0.25900
H 	H 	0.32690 0.27360 0.35140 0.25300
H 	H 	0.08580 0.27750 0.40670 0.20400
H 	H 	0.91990 0.21130 0.41560 0.01400
H 	H 	0.71590 0.13970 0.42570 0.07400
H 	H 	0.42090 0.30870 0.54610 0.06800
H 	H 	0.61860 0.38000 0.53040 0.02300
H 	H 	0.58350 0.09180 0.48080 0.09800
H 	H 	0.37890 0.01770 0.48340 -0.01900
H 	H 	0.00950 0.15230 0.51580 -0.03200
H 	H 	0.20410 0.23190 0.51590 0.06100
H 	H 	0.43770 0.03690 0.65480 0.30000
H 	H 	0.32050 0.99300 0.68020 0.31900
H 	H 	0.32690 0.07780 0.72640 0.28300
H 	H 	0.08580 0.12920 0.72250 0.20500
H 	H 	0.91990 0.20430 0.78870 0.01500
H 	H 	0.71590 0.28600 0.86030 0.07800
H 	H 	0.42090 0.23740 0.69130 0.06900
H 	H 	0.61860 0.15040 0.62000 0.02000
H 	H 	0.58350 0.38900 0.90820 0.10200
H 	H 	0.37890 0.46570 0.98230 0.01100
H 	H 	0.00950 0.36350 0.84770 -0.03000
H 	H 	0.20410 0.28400 0.76810 0.06000
H 	H 	0.43770 0.61790 0.96310 0.27200
H 	H 	0.32050 0.68720 0.00700 0.22300
H 	H 	0.32690 0.64860 0.92220 0.24400
H 	H 	0.08580 0.59330 0.87080 0.20900
H 	H 	0.91990 0.58440 0.79570 0.01800
H 	H 	0.71590 0.57430 0.71400 0.07700
H 	H 	0.42090 0.45390 0.76260 0.06800
H 	H 	0.61860 0.46960 0.84960 0.02400
H 	H 	0.58350 0.51920 0.61100 0.10000
H 	H 	0.37890 0.51660 0.53430 -0.00400
H 	H 	0.00950 0.48420 0.63650 -0.03100
H 	H 	0.20410 0.48410 0.71600 0.06100
H 	H 	0.56230 0.65480 0.61790 0.25500
H 	H 	0.67950 0.68020 0.68720 0.25400
H 	H 	0.67310 0.72640 0.64860 0.24700
H 	H 	0.91420 0.72250 0.59330 0.15900
H 	H 	0.08010 0.78870 0.58440 -0.01400
H 	H 	0.28410 0.86030 0.57430 0.05000
H 	H 	0.57910 0.69130 0.45390 0.06200
H 	H 	0.38140 0.62000 0.46960 0.04000
H 	H 	0.41650 0.90820 0.51920 0.09600
H 	H 	0.62110 0.98230 0.51660 0.01500
H 	H 	0.99050 0.84770 0.48420 0.03600
H 	H 	0.79590 0.76810 0.48410 0.08700
H 	H 	0.56230 0.96310 0.34520 0.23400
H 	H 	0.67950 0.00700 0.31980 0.19500
H 	H 	0.67310 0.92220 0.27360 0.21700
H 	H 	0.91420 0.87080 0.27750 0.15700
H 	H 	0.08010 0.79570 0.21130 -0.01600
H 	H 	0.28410 0.71400 0.13970 0.04600
H 	H 	0.57910 0.76260 0.30870 0.06100
H 	H 	0.38140 0.84960 0.38000 0.04300
H 	H 	0.41650 0.61100 0.09180 0.09200
H 	H 	0.62110 0.53430 0.01770 -0.01500
H 	H 	0.99050 0.63650 0.15230 0.03500
H 	H 	0.79590 0.71600 0.23190 0.08800
H 	H 	0.56230 0.38210 0.03690 0.26100
H 	H 	0.67950 0.31280 0.99300 0.28900
H 	H 	0.67310 0.35140 0.07780 0.25500
H 	H 	0.91420 0.40670 0.12920 0.15200
H 	H 	0.08010 0.41560 0.20430 -0.01900
H 	H 	0.28410 0.42570 0.28600 0.04600
H 	H 	0.57910 0.54610 0.23740 0.06200
H 	H 	0.38140 0.53040 0.15040 0.03900
H 	H 	0.41650 0.48080 0.38900 0.09300
H 	H 	0.62110 0.48340 0.46570 -0.00100
H 	H 	0.99050 0.51580 0.36350 0.03600
H 	H 	0.79590 0.51590 0.28400 0.08700
C 	C 	0.32900 0.32188 0.35877 -0.85900
C 	C 	0.17764 0.36364 0.40504 0.56200
C 	C 	0.06061 0.32617 0.42360 -0.64800
C 	C 	0.91076 0.35338 0.46445 0.47500
C 	C 	0.78746 0.30382 0.47091 -0.17400
C 	C 	0.81579 0.23171 0.44113 0.08100
C 	C 	0.69512 0.18938 0.44798 -0.12700
C 	C 	0.54643 0.21604 0.48566 0.04500
C 	C 	0.52100 0.28798 0.51776 -0.12500
C 	C 	0.64050 0.33049 0.50898 0.07500
C 	C 	0.41842 0.16820 0.49173 0.06200
C 	C 	0.46498 0.10535 0.48633 -0.16400
C 	C 	0.34189 0.06181 0.48889 0.08600
C 	C 	0.12845 0.13951 0.50786 0.07600
C 	C 	0.24300 0.18665 0.50667 -0.15200
C 	C 	0.32900 0.03689 0.67812 -0.96400
C 	C 	0.17764 0.04140 0.63636 0.54600
C 	C 	0.06061 0.09743 0.67383 -0.64800
C 	C 	0.91076 0.11107 0.64662 0.47200
C 	C 	0.78746 0.16709 0.69618 -0.17600
C 	C 	0.81579 0.20942 0.76829 0.08300
C 	C 	0.69512 0.25860 0.81062 -0.12900
C 	C 	0.54643 0.26962 0.78396 0.04800
C 	C 	0.52100 0.22978 0.71202 -0.12800
C 	C 	0.64050 0.17849 0.66951 0.07600
C 	C 	0.41842 0.32353 0.83180 0.06000
C 	C 	0.46498 0.38098 0.89465 -0.15400
C 	C 	0.34189 0.42708 0.93819 0.08600
C 	C 	0.12845 0.36835 0.86049 0.07600
C 	C 	0.24300 0.32002 0.81335 -0.14700
C 	C 	0.32900 0.64123 0.96311 -0.79000
C 	C 	0.17764 0.59496 0.95860 0.58700
C 	C 	0.06061 0.57640 0.90257 -0.64700
C 	C 	0.91076 0.53555 0.88893 0.47800
C 	C 	0.78746 0.52909 0.83291 -0.17100
C 	C 	0.81579 0.55887 0.79058 0.08300
C 	C 	0.69512 0.55202 0.74140 -0.12400
C 	C 	0.54643 0.51434 0.73038 0.04600
C 	C 	0.52100 0.48224 0.77022 -0.12400
C 	C 	0.64050 0.49102 0.82151 0.07600
C 	C 	0.41842 0.50827 0.67647 0.06300
C 	C 	0.46498 0.51367 0.61902 -0.15900
C 	C 	0.34189 0.51111 0.57292 0.08700
C 	C 	0.12845 0.49214 0.63165 0.07700
C 	C 	0.24300 0.49333 0.67998 -0.14900
C 	C 	0.67100 0.67812 0.64123 -0.77700
C 	C 	0.82236 0.63636 0.59496 0.46100
C 	C 	0.93939 0.67383 0.57640 -0.33400
C 	C 	0.08924 0.64662 0.53555 0.20800
C 	C 	0.21254 0.69618 0.52909 -0.09700
C 	C 	0.18421 0.76829 0.55887 0.00400
C 	C 	0.30488 0.81062 0.55202 -0.09700
C 	C 	0.45357 0.78396 0.51434 0.01700
C 	C 	0.47900 0.71202 0.48224 -0.09000
C 	C 	0.35950 0.66951 0.49102 0.00900
C 	C 	0.58158 0.83180 0.50827 0.07500
C 	C 	0.53502 0.89465 0.51367 -0.15600
C 	C 	0.65811 0.93819 0.51111 0.09300
C 	C 	0.87155 0.86049 0.49214 0.09200
C 	C 	0.75700 0.81335 0.49333 -0.13700
C 	C 	0.67100 0.96311 0.32188 -0.67300
C 	C 	0.82236 0.95860 0.36364 0.47400
C 	C 	0.93939 0.90257 0.32617 -0.33200
C 	C 	0.08924 0.88893 0.35338 0.21000
C 	C 	0.21254 0.83291 0.30382 -0.09500
C 	C 	0.18421 0.79058 0.23171 0.00200
C 	C 	0.30488 0.74140 0.18938 -0.09500
C 	C 	0.45357 0.73038 0.21604 0.01300
C 	C 	0.47900 0.77022 0.28798 -0.08800
C 	C 	0.35950 0.82151 0.33049 0.00700
C 	C 	0.58158 0.67647 0.16820 0.07700
C 	C 	0.53502 0.61902 0.10535 -0.16600
C 	C 	0.65811 0.57292 0.06181 0.09300
C 	C 	0.87155 0.63165 0.13951 0.09200
C 	C 	0.75700 0.67998 0.18665 -0.14200
C 	C 	0.67100 0.35877 0.03689 -0.84300
C 	C 	0.82236 0.40504 0.04140 0.43400
C 	C 	0.93939 0.42360 0.09743 -0.32800
C 	C 	0.08924 0.46445 0.11107 0.20000
C 	C 	0.21254 0.47091 0.16709 -0.09800
C 	C 	0.18421 0.44113 0.20942 0.00100
C 	C 	0.30488 0.44798 0.25860 -0.09800
C 	C 	0.45357 0.48566 0.26962 0.01400
C 	C 	0.47900 0.51776 0.22978 -0.09000
C 	C 	0.35950 0.50898 0.17849 0.00700
C 	C 	0.58158 0.49173 0.32353 0.07400
C 	C 	0.53502 0.48633 0.38098 -0.16100
C 	C 	0.65811 0.48889 0.42708 0.09200
C 	C 	0.87155 0.50786 0.36835 0.09100
C 	C 	0.75700 0.50667 0.32002 -0.14000
N 	N 	0.17498 0.07658 0.49842 -0.25200
N 	N 	0.17498 0.42184 0.92342 -0.23900
N 	N 	0.17498 0.50158 0.57816 -0.24600
N 	N 	0.82502 0.92342 0.50158 -0.20800
N 	N 	0.82502 0.57816 0.07658 -0.22100
N 	N 	0.82502 0.49842 0.42184 -0.21600
O 	O 	0.86510 0.41800 0.49692 -0.42800
O 	O 	0.16697 0.42770 0.42224 -0.51700
O 	O 	0.86510 0.07892 0.58200 -0.43600
O 	O 	0.16697 0.99454 0.57230 -0.48000
O 	O 	0.86510 0.50308 0.92108 -0.41700
O 	O 	0.16697 0.57776 0.00546 -0.54800
O 	O 	0.13490 0.58200 0.50308 -0.42100
O 	O 	0.83303 0.57230 0.57776 -0.43100
O 	O 	0.13490 0.92108 0.41800 -0.40800
O 	O 	0.83303 0.00546 0.42770 -0.46200
O 	O 	0.13490 0.49692 0.07892 -0.42800
O 	O 	0.83303 0.42224 0.99454 -0.39700
