data_crystal

_cell_length_a 7.78500
_cell_length_b 10.23800
_cell_length_c 15.85100
_cell_angle_alpha 90.00000
_cell_angle_beta  90.00000
_cell_angle_gamma 90.00000

_symmetry_space_group_name_	'P 1'
_symmetry_space_group_name_H-M	'P 1'

loop_
_symmetry_equiv_pos_as_xyz
  x,y,z

loop_
_atom_site_label
_atom_site_type_symbol
_atom_site_fract_x
_atom_site_fract_y
_atom_site_fract_z
_atom_site_charge
Fe	Fe	0.63812 0.52983 0.90166 1.14900
Fe	Fe	0.36188 0.47017 0.40166 1.15200
Fe	Fe	0.13812 0.97017 0.90166 1.14700
Fe	Fe	0.86188 0.02983 0.40166 1.15100
H 	H 	0.58600 0.94930 0.71070 0.12300
H 	H 	0.45080 0.41120 0.58640 0.02900
H 	H 	0.34240 0.75160 0.48540 0.01200
H 	H 	0.44430 0.85990 0.60270 0.06500
H 	H 	0.56340 0.50910 0.70450 0.04600
H 	H 	0.41400 0.05070 0.21070 0.12300
H 	H 	0.54920 0.58880 0.08640 0.03300
H 	H 	0.65760 0.24840 0.98540 -0.01500
H 	H 	0.55570 0.14010 0.10270 0.07500
H 	H 	0.43660 0.49090 0.20450 0.04900
H 	H 	0.08600 0.55070 0.71070 0.12100
H 	H 	0.95080 0.08880 0.58640 0.01800
H 	H 	0.84240 0.74840 0.48540 0.01200
H 	H 	0.94430 0.64010 0.60270 0.06400
H 	H 	0.06340 0.99090 0.70450 0.05000
H 	H 	0.91400 0.44930 0.21070 0.12200
H 	H 	0.04920 0.91120 0.08640 0.02800
H 	H 	0.15760 0.25160 0.98540 -0.01800
H 	H 	0.05570 0.35990 0.10270 0.07600
H 	H 	0.93660 0.00910 0.20450 0.05100
C 	C 	0.45300 0.50390 0.58913 0.05100
C 	C 	0.38890 0.70190 0.53056 0.05400
C 	C 	0.45040 0.76740 0.59996 -0.09100
C 	C 	0.51930 0.56130 0.65991 -0.08300
C 	C 	0.52150 0.69670 0.66600 0.01100
C 	C 	0.60540 0.75910 0.73815 0.11700
C 	C 	0.73240 0.91300 0.81253 -0.00300
C 	C 	0.76500 0.79120 0.84698 -0.07800
C 	C 	0.78080 0.05020 0.83547 0.31600
C 	C 	0.86680 0.75110 0.92164 0.34900
C 	C 	0.54700 0.49610 0.08913 0.05800
C 	C 	0.61110 0.29810 0.03056 0.09800
C 	C 	0.54960 0.23260 0.09996 -0.11300
C 	C 	0.48070 0.43870 0.15991 -0.09000
C 	C 	0.47850 0.30330 0.16600 0.02200
C 	C 	0.39460 0.24090 0.23815 0.11400
C 	C 	0.26760 0.08700 0.31253 -0.00500
C 	C 	0.23500 0.20880 0.34698 -0.07700
C 	C 	0.21920 0.94980 0.33547 0.31900
C 	C 	0.13320 0.24890 0.42164 0.34800
C 	C 	0.95300 0.99610 0.58913 0.07400
C 	C 	0.88890 0.79810 0.53056 0.05600
C 	C 	0.95040 0.73260 0.59996 -0.09000
C 	C 	0.01930 0.93870 0.65991 -0.10000
C 	C 	0.02150 0.80330 0.66600 0.01300
C 	C 	0.10540 0.74090 0.73815 0.11500
C 	C 	0.23240 0.58700 0.81253 -0.00700
C 	C 	0.26500 0.70880 0.84698 -0.07900
C 	C 	0.28080 0.44980 0.83547 0.31800
C 	C 	0.36680 0.74890 0.92164 0.34900
C 	C 	0.04700 0.00390 0.08913 0.07200
C 	C 	0.11110 0.20190 0.03056 0.10300
C 	C 	0.04960 0.26740 0.09996 -0.11300
C 	C 	0.98070 0.06130 0.15991 -0.10400
C 	C 	0.97850 0.19670 0.16600 0.02300
C 	C 	0.89460 0.25910 0.23815 0.11200
C 	C 	0.76760 0.41300 0.31253 -0.00600
C 	C 	0.73500 0.29120 0.34698 -0.07800
C 	C 	0.71920 0.55020 0.33547 0.31900
C 	C 	0.63320 0.25110 0.42164 0.34800
N 	N 	0.39100 0.57180 0.52328 -0.21100
N 	N 	0.62940 0.88968 0.74455 -0.18900
N 	N 	0.68220 0.69604 0.80050 -0.19100
N 	N 	0.60900 0.42820 0.02328 -0.21200
N 	N 	0.37060 0.11032 0.24455 -0.18800
N 	N 	0.31780 0.30396 0.30050 -0.19100
N 	N 	0.89100 0.92820 0.52328 -0.21300
N 	N 	0.12940 0.61032 0.74455 -0.18900
N 	N 	0.18220 0.80396 0.80050 -0.19100
N 	N 	0.10900 0.07180 0.02328 -0.21400
N 	N 	0.87060 0.38968 0.24455 -0.18800
N 	N 	0.81780 0.19604 0.30050 -0.19100
O 	O 	0.66520 0.13332 0.82898 -0.26300
O 	O 	0.93220 0.07457 0.85673 -0.42000
O 	O 	0.97050 0.82871 0.95412 -0.39800
O 	O 	0.84480 0.63518 0.94765 -0.41000
O 	O 	0.33480 0.86668 0.32898 -0.26100
O 	O 	0.06780 0.92543 0.35673 -0.41800
O 	O 	0.02950 0.17129 0.45412 -0.39100
O 	O 	0.15520 0.36482 0.44765 -0.40400
O 	O 	0.16520 0.36668 0.82898 -0.26400
O 	O 	0.43220 0.42543 0.85673 -0.42000
O 	O 	0.47050 0.67129 0.95412 -0.40100
O 	O 	0.34480 0.86482 0.94765 -0.41100
O 	O 	0.83480 0.63332 0.32898 -0.26100
O 	O 	0.56780 0.57457 0.35673 -0.41700
O 	O 	0.52950 0.32871 0.45412 -0.39400
O 	O 	0.65520 0.13518 0.44765 -0.40400
