data_crystal

_cell_length_a 11.61510
_cell_length_b 15.64800
_cell_length_c 18.16300
_cell_angle_alpha 90.00000
_cell_angle_beta  93.20200
_cell_angle_gamma 90.00000

_symmetry_space_group_name_	'P 1'
_symmetry_space_group_name_H-M	'P 1'

loop_
_symmetry_equiv_pos_as_xyz
  x,y,z

loop_
_atom_site_label
_atom_site_type_symbol
_atom_site_fract_x
_atom_site_fract_y
_atom_site_fract_z
_atom_site_charge
Zn	Zn	0.99238 -0.00000 0.91893 1.19300
Zn	Zn	0.00762 0.00000 0.08107 1.19400
H 	H 	0.74240 0.79540 0.88880 0.05700
H 	H 	0.75800 0.79800 0.11000 0.05500
H 	H 	0.64880 0.67170 0.10980 0.09600
H 	H 	0.62100 0.67180 0.89310 0.09700
H 	H 	0.25760 0.79540 0.11120 0.05600
H 	H 	0.24200 0.79800 0.89000 0.05700
H 	H 	0.35120 0.67170 0.89020 0.09600
H 	H 	0.37900 0.67180 0.10690 0.09600
H 	H 	0.25760 0.20460 0.11120 0.03200
H 	H 	0.24200 0.20200 0.89000 0.03100
H 	H 	0.35120 0.32830 0.89020 0.09500
H 	H 	0.37900 0.32820 0.10690 0.09500
H 	H 	0.74240 0.20460 0.88880 0.03100
H 	H 	0.75800 0.20200 0.11000 0.02900
H 	H 	0.64880 0.32830 0.10980 0.09500
H 	H 	0.62100 0.32820 0.89310 0.09600
H 	H 	0.15980 -0.00000 0.80260 -0.01900
H 	H 	0.82700 0.00000 0.78990 -0.01700
H 	H 	0.16710 0.00000 0.67890 0.08600
H 	H 	0.82350 0.00000 0.66340 0.08300
H 	H 	0.84020 -0.00000 0.19740 -0.01800
H 	H 	0.17300 0.00000 0.21010 -0.01700
H 	H 	0.83290 0.00000 0.32110 0.08600
H 	H 	0.17650 0.00000 0.33660 0.08300
C 	C 	0.76480 0.80590 -0.00000 -0.07900
C 	C 	0.84850 0.88440 0.00100 0.41000
C 	C 	0.56260 0.57770 0.99950 -0.07200
C 	C 	0.62660 0.66070 0.99990 0.11700
C 	C 	0.72410 0.77150 0.93350 0.04400
C 	C 	0.73430 0.77190 0.06570 0.05200
C 	C 	0.66640 0.69670 0.06550 -0.11800
C 	C 	0.65110 0.69590 0.93680 -0.12600
C 	C 	0.23520 0.80590 -0.00000 -0.07100
C 	C 	0.15150 0.88440 0.99900 0.38800
C 	C 	0.43740 0.57770 0.00050 -0.02400
C 	C 	0.37340 0.66070 0.00010 0.11600
C 	C 	0.27590 0.77150 0.06650 0.04500
C 	C 	0.26570 0.77190 0.93430 0.04200
C 	C 	0.33360 0.69670 0.93450 -0.12400
C 	C 	0.34890 0.69590 0.06320 -0.12100
C 	C 	0.23520 0.19410 -0.00000 -0.10400
C 	C 	0.15150 0.11560 0.99900 0.40000
C 	C 	0.43740 0.42230 0.00050 -0.02800
C 	C 	0.37340 0.33930 0.00010 0.12500
C 	C 	0.27590 0.22850 0.06650 0.05700
C 	C 	0.26570 0.22810 0.93430 0.05600
C 	C 	0.33360 0.30330 0.93450 -0.14500
C 	C 	0.34890 0.30410 0.06320 -0.14100
C 	C 	0.76480 0.19410 -0.00000 -0.11200
C 	C 	0.84850 0.11560 0.00100 0.42300
C 	C 	0.56260 0.42230 0.99950 -0.07600
C 	C 	0.62660 0.33930 0.99990 0.12600
C 	C 	0.72410 0.22850 0.93350 0.05500
C 	C 	0.73430 0.22810 0.06570 0.06500
C 	C 	0.66640 0.30330 0.06550 -0.13800
C 	C 	0.65110 0.30410 0.93680 -0.14500
C 	C 	0.09020 0.00000 0.77470 0.09500
C 	C 	0.89690 0.00000 0.76730 0.07700
C 	C 	0.09540 0.00000 0.69920 -0.15000
C 	C 	0.99721 -0.00000 0.65290 0.06800
C 	C 	0.89410 0.00000 0.69020 -0.13700
C 	C 	0.99872 0.00000 0.56990 0.08400
C 	C 	0.90980 0.00000 0.22530 0.09500
C 	C 	0.10310 0.00000 0.23270 0.07600
C 	C 	0.90460 0.00000 0.30080 -0.14900
C 	C 	0.00279 0.00000 0.34710 0.06800
C 	C 	0.10590 0.00000 0.30980 -0.13600
C 	C 	0.00128 -0.00000 0.43010 0.08300
C 	C 	0.61560 0.50000 0.00290 0.13400
C 	C 	0.38440 0.50000 0.99710 0.07900
Br	Br	0.78067 0.50000 0.99938 -0.22800
Br	Br	0.21933 0.50000 0.00062 -0.20800
N 	N 	0.99434 0.00000 0.81070 -0.27600
N 	N 	0.09980 0.00000 0.53870 -0.08800
N 	N 	0.89690 0.00000 0.53280 -0.08800
N 	N 	0.00566 0.00000 0.18930 -0.27600
N 	N 	0.90020 0.00000 0.46130 -0.08700
N 	N 	0.10310 0.00000 0.46720 -0.08800
O 	O 	0.87030 0.90890 0.93950 -0.42400
O 	O 	0.88380 0.90910 0.06260 -0.41800
O 	O 	0.12970 0.90890 0.06050 -0.41100
O 	O 	0.11620 0.90910 0.93740 -0.41500
O 	O 	0.12970 0.09110 0.06050 -0.48000
O 	O 	0.11620 0.09090 0.93740 -0.48400
O 	O 	0.87030 0.09110 0.93950 -0.49400
O 	O 	0.88380 0.09090 0.06260 -0.48700
