data_crystal

_cell_length_a 10.31100
_cell_length_b 14.36660
_cell_length_c 18.40140
_cell_angle_alpha 90.00000
_cell_angle_beta  90.00000
_cell_angle_gamma 99.82500

_symmetry_space_group_name_	'P 1'
_symmetry_space_group_name_H-M	'P 1'

loop_
_symmetry_equiv_pos_as_xyz
  x,y,z

loop_
_atom_site_label
_atom_site_type_symbol
_atom_site_fract_x
_atom_site_fract_y
_atom_site_fract_z
_atom_site_charge
Ca	Ca	0.62367 0.82110 0.30815 1.49200
Ca	Ca	0.87633 0.67890 0.80815 1.49200
Ca	Ca	0.37633 0.17890 0.69185 1.49200
Ca	Ca	0.12367 0.32110 0.19185 1.49200
Zn	Zn	0.70741 0.05302 0.18617 1.23500
Zn	Zn	0.79259 0.44698 0.68617 1.23500
Zn	Zn	0.29259 0.94698 0.81383 1.23500
Zn	Zn	0.20741 0.55302 0.31383 1.23500
H 	H 	0.60330 0.01290 0.47400 0.02700
H 	H 	0.59170 0.10120 0.57750 0.01700
H 	H 	0.75590 0.33280 0.47030 0.04200
H 	H 	0.75240 0.24620 0.36470 0.05200
H 	H 	0.05490 0.82760 0.28040 0.02500
H 	H 	0.27740 0.82840 0.26800 0.04400
H 	H 	0.29700 0.03650 0.12180 0.03400
H 	H 	0.07320 0.03160 0.13130 0.01600
H 	H 	0.89670 0.48710 0.97400 0.02800
H 	H 	0.90830 0.39880 0.07750 0.01700
H 	H 	0.74410 0.16720 0.97030 0.04200
H 	H 	0.74760 0.25380 0.86470 0.05200
H 	H 	0.44510 0.67240 0.78040 0.02500
H 	H 	0.22260 0.67160 0.76800 0.04400
H 	H 	0.20300 0.46350 0.62180 0.03600
H 	H 	0.42680 0.46840 0.63130 0.01800
H 	H 	0.39670 0.98710 0.52600 0.02700
H 	H 	0.40830 0.89880 0.42250 0.01700
H 	H 	0.24410 0.66720 0.52970 0.04200
H 	H 	0.24760 0.75380 0.63530 0.05200
H 	H 	0.94510 0.17240 0.71960 0.02500
H 	H 	0.72260 0.17160 0.73200 0.04400
H 	H 	0.70300 0.96350 0.87820 0.03400
H 	H 	0.92680 0.96840 0.86870 0.01600
H 	H 	0.10330 0.51290 0.02600 0.02800
H 	H 	0.09170 0.60120 0.92250 0.01700
H 	H 	0.25590 0.83280 0.02970 0.04200
H 	H 	0.25240 0.74620 0.13530 0.05200
H 	H 	0.55490 0.32760 0.21960 0.02500
H 	H 	0.77740 0.32840 0.23200 0.04400
H 	H 	0.79700 0.53650 0.37820 0.03600
H 	H 	0.57320 0.53160 0.36870 0.01800
C 	C 	0.67560 0.12070 0.40800 -0.10900
C 	C 	0.63070 0.07800 0.47250 -0.01800
C 	C 	0.62590 0.13070 0.53500 -0.01900
C 	C 	0.67150 0.22660 0.53480 -0.12500
C 	C 	0.72160 0.26860 0.47090 -0.00400
C 	C 	0.72140 0.21640 0.40770 -0.02100
C 	C 	0.67090 0.06300 0.34020 0.41100
C 	C 	0.66770 0.28320 0.60320 0.41400
C 	C 	0.04180 0.93010 0.20790 -0.11700
C 	C 	0.10370 0.86950 0.24810 -0.00100
C 	C 	0.23720 0.87030 0.24100 -0.03200
C 	C 	0.31110 0.93300 0.19400 -0.09500
C 	C 	0.24820 0.99380 0.15350 -0.03000
C 	C 	0.11440 0.99170 0.15960 -0.01500
C 	C 	0.89590 0.93100 0.21660 0.40500
C 	C 	0.45720 0.93710 0.18920 0.39400
C 	C 	0.82440 0.37930 0.90800 -0.10800
C 	C 	0.86930 0.42200 0.97250 -0.01900
C 	C 	0.87410 0.36930 0.03500 -0.01800
C 	C 	0.82850 0.27340 0.03480 -0.12700
C 	C 	0.77840 0.23140 0.97090 -0.00200
C 	C 	0.77860 0.28360 0.90770 -0.02200
C 	C 	0.82910 0.43700 0.84020 0.41200
C 	C 	0.83230 0.21680 0.10320 0.41500
C 	C 	0.45820 0.56990 0.70790 -0.11700
C 	C 	0.39630 0.63050 0.74810 -0.00100
C 	C 	0.26280 0.62970 0.74100 -0.03300
C 	C 	0.18890 0.56700 0.69400 -0.09400
C 	C 	0.25180 0.50620 0.65350 -0.03300
C 	C 	0.38560 0.50830 0.65960 -0.01700
C 	C 	0.60410 0.56900 0.71660 0.40500
C 	C 	0.04280 0.56290 0.68920 0.39200
C 	C 	0.32440 0.87930 0.59200 -0.10900
C 	C 	0.36930 0.92200 0.52750 -0.01800
C 	C 	0.37410 0.86930 0.46500 -0.01900
C 	C 	0.32850 0.77340 0.46520 -0.12500
C 	C 	0.27840 0.73140 0.52910 -0.00400
C 	C 	0.27860 0.78360 0.59230 -0.02100
C 	C 	0.32910 0.93700 0.65980 0.41100
C 	C 	0.33230 0.71680 0.39680 0.41400
C 	C 	0.95820 0.06990 0.79210 -0.11700
C 	C 	0.89630 0.13050 0.75190 -0.00100
C 	C 	0.76280 0.12970 0.75900 -0.03200
C 	C 	0.68890 0.06700 0.80600 -0.09500
C 	C 	0.75180 0.00620 0.84650 -0.03000
C 	C 	0.88560 0.00830 0.84040 -0.01500
C 	C 	0.10410 0.06900 0.78340 0.40500
C 	C 	0.54280 0.06290 0.81080 0.39400
C 	C 	0.17560 0.62070 0.09200 -0.10800
C 	C 	0.13070 0.57800 0.02750 -0.01900
C 	C 	0.12590 0.63070 0.96500 -0.01800
C 	C 	0.17150 0.72660 0.96520 -0.12700
C 	C 	0.22160 0.76860 0.02910 -0.00200
C 	C 	0.22140 0.71640 0.09230 -0.02200
C 	C 	0.17090 0.56300 0.15980 0.41200
C 	C 	0.16770 0.78320 0.89680 0.41500
C 	C 	0.54180 0.43010 0.29210 -0.11700
C 	C 	0.60370 0.36950 0.25190 -0.00100
C 	C 	0.73720 0.37030 0.25900 -0.03300
C 	C 	0.81110 0.43300 0.30600 -0.09400
C 	C 	0.74820 0.49380 0.34650 -0.03300
C 	C 	0.61440 0.49170 0.34040 -0.01700
C 	C 	0.39590 0.43100 0.28340 0.40500
C 	C 	0.95720 0.43710 0.31080 0.39200
O 	O 	0.70980 0.10760 0.28298 -0.49600
O 	O 	0.62730 0.97720 0.34357 -0.51400
O 	O 	0.75810 0.35430 0.60808 -0.47100
O 	O 	0.58190 0.25710 0.64930 -0.52100
O 	O 	0.84620 0.98070 0.17132 -0.51100
O 	O 	0.83670 0.88520 0.26730 -0.52300
O 	O 	0.52270 0.01150 0.16135 -0.47500
O 	O 	0.50640 0.87040 0.21333 -0.51200
O 	O 	0.79020 0.39240 0.78298 -0.49600
O 	O 	0.87270 0.52280 0.84357 -0.51400
O 	O 	0.74190 0.14570 0.10808 -0.47100
O 	O 	0.91810 0.24290 0.14930 -0.52100
O 	O 	0.65380 0.51930 0.67132 -0.51100
O 	O 	0.66330 0.61480 0.76730 -0.52300
O 	O 	0.97730 0.48850 0.66135 -0.47300
O 	O 	0.99360 0.62960 0.71333 -0.51200
O 	O 	0.29020 0.89240 0.71702 -0.49600
O 	O 	0.37270 0.02280 0.65643 -0.51400
O 	O 	0.24190 0.64570 0.39192 -0.47100
O 	O 	0.41810 0.74290 0.35070 -0.52100
O 	O 	0.15380 0.01930 0.82868 -0.51100
O 	O 	0.16330 0.11480 0.73270 -0.52300
O 	O 	0.47730 0.98850 0.83865 -0.47500
O 	O 	0.49360 0.12960 0.78667 -0.51200
O 	O 	0.20980 0.60760 0.21702 -0.49600
O 	O 	0.12730 0.47720 0.15643 -0.51400
O 	O 	0.25810 0.85430 0.89192 -0.47100
O 	O 	0.08190 0.75710 0.85070 -0.52100
O 	O 	0.34620 0.48070 0.32868 -0.51100
O 	O 	0.33670 0.38520 0.23270 -0.52300
O 	O 	0.02270 0.51150 0.33865 -0.47300
O 	O 	0.00640 0.37040 0.28667 -0.51200
