data_crystal

_cell_length_a 12.48950
_cell_length_b 12.48950
_cell_length_c 18.25400
_cell_angle_alpha 98.75670
_cell_angle_beta  98.75670
_cell_angle_gamma 116.37800

_symmetry_space_group_name_	'P 1'
_symmetry_space_group_name_H-M	'P 1'

loop_
_symmetry_equiv_pos_as_xyz
  x,y,z

loop_
_atom_site_label
_atom_site_type_symbol
_atom_site_fract_x
_atom_site_fract_y
_atom_site_fract_z
_atom_site_charge
Zn	Zn	0.20223 0.33625 0.95948 1.21000
Zn	Zn	0.66375 0.79777 0.54052 1.21000
Zn	Zn	0.79777 0.66375 0.04052 1.20900
Zn	Zn	0.33625 0.20223 0.45948 1.20900
Zn	Zn	0.76376 0.23624 0.25000 1.15200
Zn	Zn	0.23624 0.76376 0.75000 1.15200
B 	B 	0.71150 0.03430 0.94530 0.91600
B 	B 	0.96570 0.28850 0.55470 0.93300
B 	B 	0.28850 0.96570 0.05470 0.91800
B 	B 	0.03430 0.71150 0.44530 0.92900
H 	H 	0.80500 0.97700 0.81900 0.03100
H 	H 	0.02000 0.10800 0.81200 0.02800
H 	H 	0.94700 0.23300 0.00500 -0.02000
H 	H 	0.58400 0.71200 0.06400 0.02500
H 	H 	0.55000 0.88000 0.02600 -0.00500
H 	H 	0.82400 0.87600 0.95400 -0.03700
H 	H 	0.76800 0.08200 0.10300 -0.06600
H 	H 	0.75600 0.37800 0.09800 0.04400
H 	H 	0.69800 0.25600 0.96300 -0.00400
H 	H 	0.67100 0.11300 0.82000 0.01100
H 	H 	0.46400 0.00000 0.72200 0.01800
H 	H 	0.47200 0.84400 0.88400 -0.06700
H 	H 	0.19300 0.41900 0.24600 0.03400
H 	H 	0.42000 0.67000 0.14200 0.05400
H 	H 	0.27100 0.36300 0.67600 0.03500
H 	H 	0.49700 0.59700 0.88100 0.05200
H 	H 	0.02300 0.19500 0.68100 0.02000
H 	H 	0.89200 0.98000 0.68800 0.03300
H 	H 	0.76700 0.05300 0.49500 -0.02600
H 	H 	0.28800 0.41600 0.43600 0.02600
H 	H 	0.12000 0.45000 0.47400 -0.00700
H 	H 	0.12400 0.17600 0.54600 -0.03900
H 	H 	0.91800 0.23200 0.39700 -0.06800
H 	H 	0.62200 0.24400 0.40200 0.04100
H 	H 	0.74400 0.30200 0.53700 0.00100
H 	H 	0.88700 0.32900 0.68000 0.00200
H 	H 	0.00000 0.53600 0.77800 0.02700
H 	H 	0.15600 0.52800 0.61600 -0.06900
H 	H 	0.58100 0.80700 0.25400 0.03400
H 	H 	0.33000 0.58000 0.35800 0.05400
H 	H 	0.63700 0.72900 0.82400 0.03600
H 	H 	0.40300 0.50300 0.61900 0.05100
H 	H 	0.19500 0.02300 0.18100 0.02800
H 	H 	0.98000 0.89200 0.18800 0.03100
H 	H 	0.05300 0.76700 0.99500 -0.02000
H 	H 	0.41600 0.28800 0.93600 0.02500
H 	H 	0.45000 0.12000 0.97400 -0.00600
H 	H 	0.17600 0.12400 0.04600 -0.03800
H 	H 	0.23200 0.91800 0.89700 -0.06600
H 	H 	0.24400 0.62200 0.90200 0.04400
H 	H 	0.30200 0.74400 0.03700 -0.00400
H 	H 	0.32900 0.88700 0.18000 0.00700
H 	H 	0.53600 0.00000 0.27800 0.02400
H 	H 	0.52800 0.15600 0.11600 -0.06700
H 	H 	0.80700 0.58100 0.75400 0.03500
H 	H 	0.58000 0.33000 0.85800 0.05500
H 	H 	0.72900 0.63700 0.32400 0.03600
H 	H 	0.50300 0.40300 0.11900 0.05200
H 	H 	0.97700 0.80500 0.31900 0.02400
H 	H 	0.10800 0.02000 0.31200 0.03100
H 	H 	0.23300 0.94700 0.50500 -0.02600
H 	H 	0.71200 0.58400 0.56400 0.02600
H 	H 	0.88000 0.55000 0.52600 -0.00700
H 	H 	0.87600 0.82400 0.45400 -0.03800
H 	H 	0.08200 0.76800 0.60300 -0.06800
H 	H 	0.37800 0.75600 0.59800 0.04100
H 	H 	0.25600 0.69800 0.46300 0.00100
H 	H 	0.11300 0.67100 0.32000 0.00600
H 	H 	0.00000 0.46400 0.22200 0.02300
H 	H 	0.84400 0.47200 0.38400 -0.06900
H 	H 	0.41900 0.19300 0.74600 0.03400
H 	H 	0.67000 0.42000 0.64200 0.05400
H 	H 	0.36300 0.27100 0.17600 0.03600
H 	H 	0.59700 0.49700 0.38100 0.05100
C 	C 	0.85820 0.04100 0.85410 0.02100
C 	C 	0.97460 0.11500 0.85420 -0.01800
C 	C 	0.93810 0.18870 0.95580 0.12000
C 	C 	0.62050 0.77050 0.03600 -0.02600
C 	C 	0.60600 0.86300 0.01580 0.04500
C 	C 	0.76030 0.86030 0.97860 0.14400
C 	C 	0.76100 0.14380 0.08690 0.13900
C 	C 	0.74830 0.30610 0.08110 -0.04700
C 	C 	0.71710 0.23970 0.00920 0.06800
C 	C 	0.59830 0.05190 0.81720 0.02800
C 	C 	0.48930 0.98490 0.76720 -0.02000
C 	C 	0.49310 0.89310 0.85530 0.17900
C 	C 	0.21710 0.44390 0.10890 0.32300
C 	C 	0.27210 0.51810 0.25210 -0.00100
C 	C 	0.29580 0.53940 0.18130 -0.07200
C 	C 	0.39840 0.64500 0.18150 -0.04000
C 	C 	0.28770 0.38870 0.82850 0.32500
C 	C 	0.37120 0.47140 0.78690 -0.07700
C 	C 	0.34620 0.44340 0.70890 -0.00800
C 	C 	0.47620 0.57820 0.82840 -0.03900
C 	C 	0.95900 0.14180 0.64590 0.03900
C 	C 	0.88500 0.02540 0.64580 -0.02900
C 	C 	0.81130 0.06190 0.54420 0.12800
C 	C 	0.22950 0.37950 0.46400 -0.02800
C 	C 	0.13700 0.39400 0.48420 0.05200
C 	C 	0.13970 0.23970 0.52140 0.14100
C 	C 	0.85620 0.23900 0.41310 0.14000
C 	C 	0.69390 0.25170 0.41890 -0.04200
C 	C 	0.76030 0.28290 0.49080 0.05900
C 	C 	0.94810 0.40170 0.68280 0.05000
C 	C 	0.01510 0.51070 0.73280 -0.04100
C 	C 	0.10690 0.50690 0.64470 0.17900
C 	C 	0.55610 0.78290 0.39110 0.32300
C 	C 	0.48190 0.72790 0.24790 -0.00100
C 	C 	0.46060 0.70420 0.31870 -0.07200
C 	C 	0.35500 0.60160 0.31850 -0.04000
C 	C 	0.61130 0.71230 0.67150 0.32600
C 	C 	0.52860 0.62880 0.71310 -0.07700
C 	C 	0.55660 0.65380 0.79110 -0.00800
C 	C 	0.42180 0.52380 0.67160 -0.03900
C 	C 	0.14180 0.95900 0.14590 0.02700
C 	C 	0.02540 0.88500 0.14580 -0.02400
C 	C 	0.06190 0.81130 0.04420 0.11800
C 	C 	0.37950 0.22950 0.96400 -0.02600
C 	C 	0.39400 0.13700 0.98420 0.04500
C 	C 	0.23970 0.13970 0.02140 0.14400
C 	C 	0.23900 0.85620 0.91310 0.13900
C 	C 	0.25170 0.69390 0.91890 -0.04700
C 	C 	0.28290 0.76030 0.99080 0.06800
C 	C 	0.40170 0.94810 0.18280 0.03700
C 	C 	0.51070 0.01510 0.23280 -0.03000
C 	C 	0.50690 0.10690 0.14470 0.17900
C 	C 	0.78290 0.55610 0.89110 0.32300
C 	C 	0.72790 0.48190 0.74790 -0.00100
C 	C 	0.70420 0.46060 0.81870 -0.07200
C 	C 	0.60160 0.35500 0.81850 -0.04000
C 	C 	0.71230 0.61130 0.17150 0.32500
C 	C 	0.62880 0.52860 0.21310 -0.07700
C 	C 	0.65380 0.55660 0.29110 -0.00800
C 	C 	0.52380 0.42180 0.17160 -0.03900
C 	C 	0.04100 0.85820 0.35410 0.03200
C 	C 	0.11500 0.97460 0.35420 -0.02400
C 	C 	0.18870 0.93810 0.45580 0.12800
C 	C 	0.77050 0.62050 0.53600 -0.02800
C 	C 	0.86300 0.60600 0.51580 0.05200
C 	C 	0.86030 0.76030 0.47860 0.14100
C 	C 	0.14380 0.76100 0.58690 0.14000
C 	C 	0.30610 0.74830 0.58110 -0.04200
C 	C 	0.23970 0.71710 0.50920 0.05900
C 	C 	0.05190 0.59830 0.31720 0.04200
C 	C 	0.98490 0.48930 0.26720 -0.03200
C 	C 	0.89310 0.49310 0.35530 0.17900
C 	C 	0.44390 0.21710 0.60890 0.32300
C 	C 	0.51810 0.27210 0.75210 -0.00100
C 	C 	0.53940 0.29580 0.68130 -0.07200
C 	C 	0.64500 0.39840 0.68150 -0.04000
C 	C 	0.38870 0.28770 0.32850 0.32600
C 	C 	0.47140 0.37120 0.28690 -0.07700
C 	C 	0.44340 0.34620 0.20890 -0.00800
C 	C 	0.57820 0.47620 0.32840 -0.03900
N 	N 	0.02570 0.21130 0.91900 -0.27400
N 	N 	0.83300 0.08640 0.91900 -0.30200
N 	N 	0.72080 0.76980 0.01320 -0.27000
N 	N 	0.69320 0.91980 0.97750 -0.30100
N 	N 	0.77730 0.24450 0.13180 -0.25500
N 	N 	0.72320 0.13260 0.01130 -0.31900
N 	N 	0.60420 0.99360 0.87550 -0.31400
N 	N 	0.42100 0.88200 0.79160 -0.29400
N 	N 	0.78870 0.97430 0.58100 -0.27300
N 	N 	0.91360 0.16700 0.58100 -0.30800
N 	N 	0.23020 0.27920 0.48680 -0.26800
N 	N 	0.08020 0.30680 0.52250 -0.30700
N 	N 	0.75550 0.22270 0.36820 -0.25600
N 	N 	0.86740 0.27680 0.48870 -0.32200
N 	N 	0.00640 0.39580 0.62450 -0.32400
N 	N 	0.11800 0.57900 0.70840 -0.29100
N 	N 	0.97430 0.78870 0.08100 -0.27200
N 	N 	0.16700 0.91360 0.08100 -0.30300
N 	N 	0.27920 0.23020 0.98680 -0.27000
N 	N 	0.30680 0.08020 0.02250 -0.30200
N 	N 	0.22270 0.75550 0.86820 -0.25500
N 	N 	0.27680 0.86740 0.98870 -0.31900
N 	N 	0.39580 0.00640 0.12450 -0.31700
N 	N 	0.57900 0.11800 0.20840 -0.29200
N 	N 	0.21130 0.02570 0.41900 -0.27500
N 	N 	0.08640 0.83300 0.41900 -0.30600
N 	N 	0.76980 0.72080 0.51320 -0.26800
N 	N 	0.91980 0.69320 0.47750 -0.30600
N 	N 	0.24450 0.77730 0.63180 -0.25600
N 	N 	0.13260 0.72320 0.51130 -0.32200
N 	N 	0.99360 0.60420 0.37550 -0.32100
N 	N 	0.88200 0.42100 0.29160 -0.29200
O 	O 	0.13300 0.34340 0.10880 -0.31700
O 	O 	0.24710 0.47110 0.04730 -0.45500
O 	O 	0.21310 0.27830 0.79420 -0.30900
O 	O 	0.29730 0.43430 0.89730 -0.46700
O 	O 	0.65660 0.86700 0.39120 -0.31700
O 	O 	0.52890 0.75290 0.45270 -0.45500
O 	O 	0.72170 0.78690 0.70580 -0.30900
O 	O 	0.56570 0.70270 0.60270 -0.46700
O 	O 	0.86700 0.65660 0.89120 -0.31600
O 	O 	0.75290 0.52890 0.95270 -0.45500
O 	O 	0.78690 0.72170 0.20580 -0.30900
O 	O 	0.70270 0.56570 0.10270 -0.46700
O 	O 	0.34340 0.13300 0.60880 -0.31700
O 	O 	0.47110 0.24710 0.54730 -0.45500
O 	O 	0.27830 0.21310 0.29420 -0.30900
O 	O 	0.43430 0.29730 0.39730 -0.46800
