data_crystal

_cell_length_a 18.31490
_cell_length_b 18.31490
_cell_length_c 18.31490
_cell_angle_alpha 60.32950
_cell_angle_beta  60.32950
_cell_angle_gamma 60.32950

_symmetry_space_group_name_	'P 1'
_symmetry_space_group_name_H-M	'P 1'

loop_
_symmetry_equiv_pos_as_xyz
  x,y,z

loop_
_atom_site_label
_atom_site_type_symbol
_atom_site_fract_x
_atom_site_fract_y
_atom_site_fract_z
_atom_site_charge
Zn	Zn	0.20609 0.20609 0.20609 1.20500
Zn	Zn	0.79391 0.79391 0.79391 1.20500
Zn	Zn	0.20677 0.37952 0.20677 1.21600
Zn	Zn	0.20677 0.20677 0.37952 1.21600
Zn	Zn	0.37952 0.20677 0.20677 1.21600
Zn	Zn	0.62048 0.79323 0.79323 1.21600
Zn	Zn	0.79323 0.79323 0.62048 1.21600
Zn	Zn	0.79323 0.62048 0.79323 1.21600
H 	H 	0.04260 0.34350 0.56530 0.05100
H 	H 	0.56530 0.04260 0.34350 0.05100
H 	H 	0.34350 0.56530 0.04260 0.05100
H 	H 	0.65650 0.95740 0.43470 0.05100
H 	H 	0.95740 0.43470 0.65650 0.05100
H 	H 	0.43470 0.65650 0.95740 0.05100
H 	H 	0.95740 0.65650 0.43470 0.05100
H 	H 	0.43470 0.95740 0.65650 0.05100
H 	H 	0.65650 0.43470 0.95740 0.05100
H 	H 	0.34350 0.04260 0.56530 0.05100
H 	H 	0.04260 0.56530 0.34350 0.05100
H 	H 	0.56530 0.34350 0.04260 0.05100
H 	H 	0.04880 0.55860 0.04880 0.05500
H 	H 	0.04170 0.34450 0.04170 0.05100
H 	H 	0.04880 0.04880 0.55860 0.05500
H 	H 	0.04170 0.04170 0.34450 0.05100
H 	H 	0.55860 0.04880 0.04880 0.05500
H 	H 	0.34450 0.04170 0.04170 0.05100
H 	H 	0.44140 0.95120 0.95120 0.05500
H 	H 	0.65550 0.95830 0.95830 0.05100
H 	H 	0.95120 0.95120 0.44140 0.05500
H 	H 	0.95830 0.95830 0.65550 0.05100
H 	H 	0.95120 0.44140 0.95120 0.05500
H 	H 	0.95830 0.65550 0.95830 0.05100
C 	C 	0.02770 0.40510 0.53870 -0.01700
C 	C 	0.53870 0.02770 0.40510 -0.01700
C 	C 	0.40510 0.53870 0.02770 -0.01700
C 	C 	0.59490 0.97230 0.46130 -0.01700
C 	C 	0.97230 0.46130 0.59490 -0.01700
C 	C 	0.46130 0.59490 0.97230 -0.01700
C 	C 	0.97230 0.59490 0.46130 -0.01700
C 	C 	0.46130 0.97230 0.59490 -0.01700
C 	C 	0.59490 0.46130 0.97230 -0.01700
C 	C 	0.40510 0.02770 0.53870 -0.01700
C 	C 	0.02770 0.53870 0.40510 -0.01700
C 	C 	0.53870 0.40510 0.02770 -0.01700
C 	C 	0.11130 0.39010 0.11130 0.34000
C 	C 	0.05390 0.44400 0.05390 -0.06900
C 	C 	0.02940 0.53530 0.02940 -0.02500
C 	C 	0.02520 0.40600 0.02520 -0.02000
C 	C 	0.11130 0.11130 0.39010 0.34000
C 	C 	0.05390 0.05390 0.44400 -0.06900
C 	C 	0.02940 0.02940 0.53530 -0.02500
C 	C 	0.02520 0.02520 0.40600 -0.02000
C 	C 	0.39010 0.11130 0.11130 0.34000
C 	C 	0.44400 0.05390 0.05390 -0.06900
C 	C 	0.53530 0.02940 0.02940 -0.02500
C 	C 	0.40600 0.02520 0.02520 -0.02000
C 	C 	0.60990 0.88870 0.88870 0.34000
C 	C 	0.55600 0.94610 0.94610 -0.06900
C 	C 	0.46470 0.97060 0.97060 -0.02500
C 	C 	0.59400 0.97480 0.97480 -0.02000
C 	C 	0.88870 0.88870 0.60990 0.34000
C 	C 	0.94610 0.94610 0.55600 -0.06900
C 	C 	0.97060 0.97060 0.46470 -0.02500
C 	C 	0.97480 0.97480 0.59400 -0.02000
C 	C 	0.88870 0.60990 0.88870 0.34000
C 	C 	0.94610 0.55600 0.94610 -0.06900
C 	C 	0.97060 0.46470 0.97060 -0.02500
C 	C 	0.97480 0.59400 0.97480 -0.02000
C 	C 	0.11170 0.38940 0.38940 0.32400
C 	C 	0.05990 0.44245 0.44245 -0.08800
C 	C 	0.38940 0.11170 0.38940 0.32400
C 	C 	0.44245 0.05990 0.44245 -0.08800
C 	C 	0.38940 0.38940 0.11170 0.32400
C 	C 	0.44245 0.44245 0.05990 -0.08800
C 	C 	0.61060 0.88830 0.61060 0.32400
C 	C 	0.55755 0.94010 0.55755 -0.08800
C 	C 	0.88830 0.61060 0.61060 0.32400
C 	C 	0.94010 0.55755 0.55755 -0.08800
C 	C 	0.61060 0.61060 0.88830 0.32400
C 	C 	0.55755 0.55755 0.94010 -0.08800
O 	O 	0.13529 0.42759 0.30119 -0.47900
O 	O 	0.30119 0.13529 0.42759 -0.47900
O 	O 	0.42759 0.30119 0.13529 -0.47900
O 	O 	0.57241 0.86471 0.69881 -0.47900
O 	O 	0.86471 0.69881 0.57241 -0.47900
O 	O 	0.69881 0.57241 0.86471 -0.47900
O 	O 	0.86471 0.57241 0.69881 -0.47900
O 	O 	0.69881 0.86471 0.57241 -0.47900
O 	O 	0.57241 0.69881 0.86471 -0.47900
O 	O 	0.42759 0.13529 0.30119 -0.47900
O 	O 	0.13529 0.30119 0.42759 -0.47900
O 	O 	0.30119 0.42759 0.13529 -0.47900
O 	O 	0.25153 0.25153 0.25153 -0.95600
O 	O 	0.74847 0.74847 0.74847 -0.95600
O 	O 	0.13410 0.30220 0.13410 -0.48300
O 	O 	0.13380 0.42820 0.13380 -0.49400
O 	O 	0.13410 0.13410 0.30220 -0.48300
O 	O 	0.13380 0.13380 0.42820 -0.49400
O 	O 	0.30220 0.13410 0.13410 -0.48300
O 	O 	0.42820 0.13380 0.13380 -0.49400
O 	O 	0.69780 0.86590 0.86590 -0.48300
O 	O 	0.57180 0.86620 0.86620 -0.49400
O 	O 	0.86590 0.86590 0.69780 -0.48300
O 	O 	0.86620 0.86620 0.57180 -0.49400
O 	O 	0.86590 0.69780 0.86590 -0.48300
O 	O 	0.86620 0.57180 0.86620 -0.49400
