data_crystal

_cell_length_a 17.05800
_cell_length_b 19.07300
_cell_length_c 19.07300
_cell_angle_alpha 90.00000
_cell_angle_beta  90.00000
_cell_angle_gamma 90.00000

_symmetry_space_group_name_	'P 1'
_symmetry_space_group_name_H-M	'P 1'

loop_
_symmetry_equiv_pos_as_xyz
  x,y,z

loop_
_atom_site_label
_atom_site_type_symbol
_atom_site_fract_x
_atom_site_fract_y
_atom_site_fract_z
_atom_site_charge
Zn	Zn	0.82358 0.88612 0.33491 1.17000
Zn	Zn	0.82358 0.11388 0.66509 1.17000
Zn	Zn	0.32358 0.16509 0.38612 1.16900
Zn	Zn	0.32358 0.83491 0.61388 1.16900
Zn	Zn	0.67642 0.61388 0.83491 1.17000
Zn	Zn	0.67642 0.38612 0.16509 1.17000
Zn	Zn	0.17642 0.33491 0.88612 1.17000
Zn	Zn	0.17642 0.66509 0.11388 1.17000
Zn	Zn	0.17642 0.11388 0.66509 1.17000
Zn	Zn	0.17642 0.88612 0.33491 1.17000
Zn	Zn	0.67642 0.83491 0.61388 1.17000
Zn	Zn	0.67642 0.16509 0.38612 1.17000
Zn	Zn	0.32358 0.38612 0.16509 1.17000
Zn	Zn	0.32358 0.61388 0.83491 1.17000
Zn	Zn	0.82358 0.66509 0.11388 1.17100
Zn	Zn	0.82358 0.33491 0.88612 1.17100
H 	H 	0.92860 0.77030 0.40630 -0.00600
H 	H 	0.69140 0.87570 0.21510 -0.00200
H 	H 	0.85690 0.02270 0.23780 -0.00700
H 	H 	0.71150 0.75520 0.36590 0.00200
H 	H 	0.71810 0.00290 0.39720 -0.06600
H 	H 	0.92860 0.22970 0.59370 -0.00600
H 	H 	0.69140 0.12430 0.78490 -0.00200
H 	H 	0.85690 0.97730 0.76220 -0.00700
H 	H 	0.71150 0.24480 0.63410 0.00200
H 	H 	0.71810 0.99710 0.60280 -0.06600
H 	H 	0.42860 0.09370 0.27030 -0.00400
H 	H 	0.19140 0.28490 0.37570 -0.00300
H 	H 	0.35690 0.26220 0.52270 -0.00800
H 	H 	0.21150 0.13410 0.25520 0.00200
H 	H 	0.21810 0.10280 0.50290 -0.06600
H 	H 	0.42860 0.90630 0.72970 -0.00400
H 	H 	0.19140 0.71510 0.62430 -0.00300
H 	H 	0.35690 0.73780 0.47730 -0.00800
H 	H 	0.21150 0.86590 0.74480 0.00200
H 	H 	0.21810 0.89720 0.49710 -0.06600
H 	H 	0.57140 0.72970 0.90630 -0.00400
H 	H 	0.80860 0.62430 0.71510 -0.00200
H 	H 	0.64310 0.47730 0.73780 -0.00800
H 	H 	0.78850 0.74480 0.86590 0.00200
H 	H 	0.78190 0.49710 0.89720 -0.06600
H 	H 	0.57140 0.27030 0.09370 -0.00400
H 	H 	0.80860 0.37570 0.28490 -0.00200
H 	H 	0.64310 0.52270 0.26220 -0.00800
H 	H 	0.78850 0.25520 0.13410 0.00200
H 	H 	0.78190 0.50290 0.10280 -0.06600
H 	H 	0.07140 0.40630 0.77030 -0.00300
H 	H 	0.30860 0.21510 0.87570 -0.00200
H 	H 	0.14310 0.23780 0.02270 -0.00800
H 	H 	0.28850 0.36590 0.75520 0.00200
H 	H 	0.28190 0.39720 0.00290 -0.06600
H 	H 	0.07140 0.59370 0.22970 -0.00300
H 	H 	0.30860 0.78490 0.12430 -0.00200
H 	H 	0.14310 0.76220 0.97730 -0.00800
H 	H 	0.28850 0.63410 0.24480 0.00200
H 	H 	0.28190 0.60280 0.99710 -0.06600
H 	H 	0.07140 0.22970 0.59370 -0.00300
H 	H 	0.30860 0.12430 0.78490 -0.00200
H 	H 	0.14310 0.97730 0.76220 -0.00800
H 	H 	0.28850 0.24480 0.63410 0.00200
H 	H 	0.28190 0.99710 0.60280 -0.06600
H 	H 	0.07140 0.77030 0.40630 -0.00300
H 	H 	0.30860 0.87570 0.21510 -0.00200
H 	H 	0.14310 0.02270 0.23780 -0.00800
H 	H 	0.28850 0.75520 0.36590 0.00200
H 	H 	0.28190 0.00290 0.39720 -0.06600
H 	H 	0.57140 0.90630 0.72970 -0.00400
H 	H 	0.80860 0.71510 0.62430 -0.00200
H 	H 	0.64310 0.73780 0.47730 -0.00800
H 	H 	0.78850 0.86590 0.74480 0.00200
H 	H 	0.78190 0.89720 0.49710 -0.06600
H 	H 	0.57140 0.09370 0.27030 -0.00400
H 	H 	0.80860 0.28490 0.37570 -0.00200
H 	H 	0.64310 0.26220 0.52270 -0.00800
H 	H 	0.78850 0.13410 0.25520 0.00200
H 	H 	0.78190 0.10280 0.50290 -0.06600
H 	H 	0.42860 0.27030 0.09370 -0.00400
H 	H 	0.19140 0.37570 0.28490 -0.00300
H 	H 	0.35690 0.52270 0.26220 -0.00800
H 	H 	0.21150 0.25520 0.13410 0.00200
H 	H 	0.21810 0.50290 0.10280 -0.06600
H 	H 	0.42860 0.72970 0.90630 -0.00400
H 	H 	0.19140 0.62430 0.71510 -0.00300
H 	H 	0.35690 0.47730 0.73780 -0.00800
H 	H 	0.21150 0.74480 0.86590 0.00200
H 	H 	0.21810 0.49710 0.89720 -0.06600
H 	H 	0.92860 0.59370 0.22970 -0.00600
H 	H 	0.69140 0.78490 0.12430 -0.00200
H 	H 	0.85690 0.76220 0.97730 -0.00700
H 	H 	0.71150 0.63410 0.24480 0.00200
H 	H 	0.71810 0.60280 0.99710 -0.06600
H 	H 	0.92860 0.40630 0.77030 -0.00600
H 	H 	0.69140 0.21510 0.87570 -0.00200
H 	H 	0.85690 0.23780 0.02270 -0.00700
H 	H 	0.71150 0.36590 0.75520 0.00200
H 	H 	0.71810 0.39720 0.00290 -0.06600
H 	H 	-0.00000 0.93190 0.30310 -0.06400
H 	H 	0.00000 0.06810 0.69690 -0.06400
H 	H 	0.50000 0.19690 0.43190 -0.06400
H 	H 	0.50000 0.80310 0.56810 -0.06400
H 	H 	0.50000 0.56810 0.80310 -0.06400
H 	H 	0.50000 0.43190 0.19690 -0.06400
H 	H 	-0.00000 0.30310 0.93190 -0.06400
H 	H 	0.00000 0.69690 0.06810 -0.06400
H 	H 	0.87320 0.75570 0.24430 -0.05700
H 	H 	0.87320 0.24430 0.75570 -0.05700
H 	H 	0.37320 0.25570 0.25570 -0.05700
H 	H 	0.37320 0.74430 0.74430 -0.05700
H 	H 	0.62680 0.74430 0.74430 -0.05700
H 	H 	0.62680 0.25570 0.25570 -0.05700
H 	H 	0.12680 0.24430 0.75570 -0.05700
H 	H 	0.12680 0.75570 0.24430 -0.05700
C 	C 	0.96020 0.80580 0.38860 -0.00500
C 	C 	0.73070 0.84270 0.20780 -0.01200
C 	C 	0.82230 0.03270 0.27420 0.00000
C 	C 	0.71400 0.78460 0.40470 -0.02000
C 	C 	0.74890 0.02310 0.36240 0.09500
C 	C 	0.96020 0.19420 0.61140 -0.00500
C 	C 	0.73070 0.15730 0.79220 -0.01200
C 	C 	0.82230 0.96730 0.72580 0.00000
C 	C 	0.71400 0.21540 0.59530 -0.02000
C 	C 	0.74890 0.97690 0.63760 0.09500
C 	C 	0.46020 0.11140 0.30580 -0.01100
C 	C 	0.23070 0.29220 0.34270 -0.01200
C 	C 	0.32230 0.22580 0.53270 0.00000
C 	C 	0.21400 0.09530 0.28460 -0.02100
C 	C 	0.24890 0.13760 0.52310 0.09500
C 	C 	0.46020 0.88860 0.69420 -0.01100
C 	C 	0.23070 0.70780 0.65730 -0.01200
C 	C 	0.32230 0.77420 0.46730 0.00000
C 	C 	0.21400 0.90470 0.71540 -0.02100
C 	C 	0.24890 0.86240 0.47690 0.09500
C 	C 	0.53980 0.69420 0.88860 -0.01100
C 	C 	0.76930 0.65730 0.70780 -0.01200
C 	C 	0.67770 0.46730 0.77420 0.00000
C 	C 	0.78600 0.71540 0.90470 -0.02000
C 	C 	0.75110 0.47690 0.86240 0.09500
C 	C 	0.53980 0.30580 0.11140 -0.01100
C 	C 	0.76930 0.34270 0.29220 -0.01200
C 	C 	0.67770 0.53270 0.22580 0.00000
C 	C 	0.78600 0.28460 0.09530 -0.02000
C 	C 	0.75110 0.52310 0.13760 0.09500
C 	C 	0.03980 0.38860 0.80580 -0.01700
C 	C 	0.26930 0.20780 0.84270 -0.01200
C 	C 	0.17770 0.27420 0.03270 0.00000
C 	C 	0.28600 0.40470 0.78460 -0.02000
C 	C 	0.25110 0.36240 0.02310 0.09500
C 	C 	0.03980 0.61140 0.19420 -0.01700
C 	C 	0.26930 0.79220 0.15730 -0.01200
C 	C 	0.17770 0.72580 0.96730 0.00000
C 	C 	0.28600 0.59530 0.21540 -0.02000
C 	C 	0.25110 0.63760 0.97690 0.09500
C 	C 	0.03980 0.19420 0.61140 -0.01700
C 	C 	0.26930 0.15730 0.79220 -0.01200
C 	C 	0.17770 0.96730 0.72580 0.00000
C 	C 	0.28600 0.21540 0.59530 -0.02000
C 	C 	0.25110 0.97690 0.63760 0.09500
C 	C 	0.03980 0.80580 0.38860 -0.01700
C 	C 	0.26930 0.84270 0.20780 -0.01200
C 	C 	0.17770 0.03270 0.27420 0.00000
C 	C 	0.28600 0.78460 0.40470 -0.02000
C 	C 	0.25110 0.02310 0.36240 0.09500
C 	C 	0.53980 0.88860 0.69420 -0.01100
C 	C 	0.76930 0.70780 0.65730 -0.01200
C 	C 	0.67770 0.77420 0.46730 0.00000
C 	C 	0.78600 0.90470 0.71540 -0.02000
C 	C 	0.75110 0.86240 0.47690 0.09500
C 	C 	0.53980 0.11140 0.30580 -0.01100
C 	C 	0.76930 0.29220 0.34270 -0.01200
C 	C 	0.67770 0.22580 0.53270 0.00000
C 	C 	0.78600 0.09530 0.28460 -0.02000
C 	C 	0.75110 0.13760 0.52310 0.09500
C 	C 	0.46020 0.30580 0.11140 -0.01100
C 	C 	0.23070 0.34270 0.29220 -0.01200
C 	C 	0.32230 0.53270 0.22580 0.00000
C 	C 	0.21400 0.28460 0.09530 -0.02100
C 	C 	0.24890 0.52310 0.13760 0.09500
C 	C 	0.46020 0.69420 0.88860 -0.01100
C 	C 	0.23070 0.65730 0.70780 -0.01200
C 	C 	0.32230 0.46730 0.77420 0.00000
C 	C 	0.21400 0.71540 0.90470 -0.02100
C 	C 	0.24890 0.47690 0.86240 0.09500
C 	C 	0.96020 0.61140 0.19420 -0.00500
C 	C 	0.73070 0.79220 0.15730 -0.01200
C 	C 	0.82230 0.72580 0.96730 0.00000
C 	C 	0.71400 0.59530 0.21540 -0.02000
C 	C 	0.74890 0.63760 0.97690 0.09500
C 	C 	0.96020 0.38860 0.80580 -0.00500
C 	C 	0.73070 0.20780 0.84270 -0.01200
C 	C 	0.82230 0.27420 0.03270 0.00000
C 	C 	0.71400 0.40470 0.78460 -0.02000
C 	C 	0.74890 0.36240 0.02310 0.09500
C 	C 	0.00000 0.89460 0.33450 0.09300
C 	C 	0.00000 0.10540 0.66550 0.09300
C 	C 	0.50000 0.16550 0.39460 0.09600
C 	C 	0.50000 0.83450 0.60540 0.09600
C 	C 	0.50000 0.60540 0.83450 0.09600
C 	C 	0.50000 0.39460 0.16550 0.09600
C 	C 	0.00000 0.33450 0.89460 0.09300
C 	C 	0.00000 0.66550 0.10540 0.09300
C 	C 	0.83150 0.77790 0.22210 0.08900
C 	C 	0.83150 0.22210 0.77790 0.08900
C 	C 	0.33150 0.27790 0.27790 0.08900
C 	C 	0.33150 0.72210 0.72210 0.08900
C 	C 	0.66850 0.72210 0.72210 0.08900
C 	C 	0.66850 0.27790 0.27790 0.08900
C 	C 	0.16850 0.22210 0.77790 0.08900
C 	C 	0.16850 0.77790 0.22210 0.08900
N 	N 	0.93430 0.86580 0.35870 -0.29500
N 	N 	0.79870 0.83660 0.24610 -0.29000
N 	N 	0.80040 0.98700 0.32500 -0.29900
N 	N 	0.75480 0.84600 0.40920 -0.29000
N 	N 	0.93430 0.13420 0.64130 -0.29500
N 	N 	0.79870 0.16340 0.75390 -0.29000
N 	N 	0.80040 0.01300 0.67500 -0.29900
N 	N 	0.75480 0.15400 0.59080 -0.29000
N 	N 	0.43430 0.14130 0.36580 -0.29600
N 	N 	0.29870 0.25390 0.33660 -0.29000
N 	N 	0.30040 0.17500 0.48700 -0.29900
N 	N 	0.25480 0.09080 0.34600 -0.29000
N 	N 	0.43430 0.85870 0.63420 -0.29600
N 	N 	0.29870 0.74610 0.66340 -0.29000
N 	N 	0.30040 0.82500 0.51300 -0.29900
N 	N 	0.25480 0.90920 0.65400 -0.29000
N 	N 	0.56570 0.63420 0.85870 -0.29600
N 	N 	0.70130 0.66340 0.74610 -0.29000
N 	N 	0.69960 0.51300 0.82500 -0.29900
N 	N 	0.74520 0.65400 0.90920 -0.29000
N 	N 	0.56570 0.36580 0.14130 -0.29600
N 	N 	0.70130 0.33660 0.25390 -0.29000
N 	N 	0.69960 0.48700 0.17500 -0.29900
N 	N 	0.74520 0.34600 0.09080 -0.29000
N 	N 	0.06570 0.35870 0.86580 -0.29500
N 	N 	0.20130 0.24610 0.83660 -0.29000
N 	N 	0.19960 0.32500 0.98700 -0.30000
N 	N 	0.24520 0.40920 0.84600 -0.29000
N 	N 	0.06570 0.64130 0.13420 -0.29500
N 	N 	0.20130 0.75390 0.16340 -0.29000
N 	N 	0.19960 0.67500 0.01300 -0.30000
N 	N 	0.24520 0.59080 0.15400 -0.29000
N 	N 	0.06570 0.13420 0.64130 -0.29500
N 	N 	0.20130 0.16340 0.75390 -0.29000
N 	N 	0.19960 0.01300 0.67500 -0.30000
N 	N 	0.24520 0.15400 0.59080 -0.29000
N 	N 	0.06570 0.86580 0.35870 -0.29500
N 	N 	0.20130 0.83660 0.24610 -0.29000
N 	N 	0.19960 0.98700 0.32500 -0.30000
N 	N 	0.24520 0.84600 0.40920 -0.29000
N 	N 	0.56570 0.85870 0.63420 -0.29600
N 	N 	0.70130 0.74610 0.66340 -0.29000
N 	N 	0.69960 0.82500 0.51300 -0.29900
N 	N 	0.74520 0.90920 0.65400 -0.29000
N 	N 	0.56570 0.14130 0.36580 -0.29600
N 	N 	0.70130 0.25390 0.33660 -0.29000
N 	N 	0.69960 0.17500 0.48700 -0.29900
N 	N 	0.74520 0.09080 0.34600 -0.29000
N 	N 	0.43430 0.36580 0.14130 -0.29600
N 	N 	0.29870 0.33660 0.25390 -0.29000
N 	N 	0.30040 0.48700 0.17500 -0.29900
N 	N 	0.25480 0.34600 0.09080 -0.29000
N 	N 	0.43430 0.63420 0.85870 -0.29600
N 	N 	0.29870 0.66340 0.74610 -0.29000
N 	N 	0.30040 0.51300 0.82500 -0.29900
N 	N 	0.25480 0.65400 0.90920 -0.29000
N 	N 	0.93430 0.64130 0.13420 -0.29500
N 	N 	0.79870 0.75390 0.16340 -0.29000
N 	N 	0.80040 0.67500 0.01300 -0.29900
N 	N 	0.75480 0.59080 0.15400 -0.29000
N 	N 	0.93430 0.35870 0.86580 -0.29500
N 	N 	0.79870 0.24610 0.83660 -0.29000
N 	N 	0.80040 0.32500 0.98700 -0.29900
N 	N 	0.75480 0.40920 0.84600 -0.29000
