data_crystal

_cell_length_a 11.36100
_cell_length_b 12.64500
_cell_length_c 14.77500
_cell_angle_alpha 90.00000
_cell_angle_beta  90.00000
_cell_angle_gamma 90.00000

_symmetry_space_group_name_	'P 1'
_symmetry_space_group_name_H-M	'P 1'

loop_
_symmetry_equiv_pos_as_xyz
  x,y,z

loop_
_atom_site_label
_atom_site_type_symbol
_atom_site_fract_x
_atom_site_fract_y
_atom_site_fract_z
_atom_site_charge
Zn	Zn	0.50000 0.00000 0.75000 1.17200
Zn	Zn	0.50000 0.00000 0.25000 1.17200
H 	H 	0.69380 0.71670 0.86300 0.06400
H 	H 	0.82960 0.57990 0.86330 0.06100
H 	H 	0.70780 0.84880 0.72080 -0.01300
H 	H 	0.91170 0.84350 0.72200 0.07000
H 	H 	0.30620 0.28330 0.86300 0.06100
H 	H 	0.17040 0.42010 0.86330 0.06100
H 	H 	0.29220 0.15120 0.72080 -0.00300
H 	H 	0.08830 0.15650 0.72200 0.07700
H 	H 	0.30620 0.71670 0.63700 0.06300
H 	H 	0.17040 0.57990 0.63670 0.05900
H 	H 	0.29220 0.84880 0.77920 -0.01300
H 	H 	0.08830 0.84350 0.77800 0.07000
H 	H 	0.69380 0.28330 0.63700 0.06000
H 	H 	0.82960 0.42010 0.63670 0.05900
H 	H 	0.70780 0.15120 0.77920 -0.00400
H 	H 	0.91170 0.15650 0.77800 0.07700
H 	H 	0.30620 0.28330 0.13700 0.06000
H 	H 	0.17040 0.42010 0.13670 0.06000
H 	H 	0.29220 0.15120 0.27920 -0.00300
H 	H 	0.08830 0.15650 0.27800 0.07700
H 	H 	0.69380 0.71670 0.13700 0.06300
H 	H 	0.82960 0.57990 0.13670 0.06000
H 	H 	0.70780 0.84880 0.27920 -0.01300
H 	H 	0.91170 0.84350 0.27800 0.07100
H 	H 	0.69380 0.28330 0.36300 0.06000
H 	H 	0.82960 0.42010 0.36330 0.05900
H 	H 	0.70780 0.15120 0.22080 -0.00300
H 	H 	0.91170 0.15650 0.22200 0.07700
H 	H 	0.30620 0.71670 0.36300 0.06300
H 	H 	0.17040 0.57990 0.36330 0.05900
H 	H 	0.29220 0.84880 0.22080 -0.01300
H 	H 	0.08830 0.84350 0.22200 0.07100
C 	C 	0.53690 0.84800 0.91987 0.13800
C 	C 	0.71975 0.68789 0.91896 -0.08500
C 	C 	0.80113 0.60746 0.91897 -0.05300
C 	C 	0.91913 0.40893 0.91916 0.08700
C 	C 	0.75010 0.91192 0.73337 0.11900
C 	C 	0.87180 0.90817 0.73331 -0.05900
C 	C 	0.46310 0.15200 0.91987 0.11100
C 	C 	0.28025 0.31211 0.91896 -0.08500
C 	C 	0.19887 0.39254 0.91897 -0.05700
C 	C 	0.08087 0.59107 0.91916 0.09100
C 	C 	0.24990 0.08808 0.73337 0.05600
C 	C 	0.12820 0.09183 0.73331 -0.11400
C 	C 	0.46310 0.84800 0.58013 0.14700
C 	C 	0.28025 0.68789 0.58104 -0.08000
C 	C 	0.19887 0.60746 0.58103 -0.04500
C 	C 	0.08087 0.40893 0.58084 0.09400
C 	C 	0.24990 0.91192 0.76663 0.11900
C 	C 	0.12820 0.90817 0.76669 -0.05900
C 	C 	0.53690 0.15200 0.58013 0.12100
C 	C 	0.71975 0.31211 0.58104 -0.07900
C 	C 	0.80113 0.39254 0.58103 -0.04900
C 	C 	0.91913 0.59107 0.58084 0.09900
C 	C 	0.75010 0.08808 0.76663 0.05600
C 	C 	0.87180 0.09183 0.76669 -0.11400
C 	C 	0.46310 0.15200 0.08013 0.12000
C 	C 	0.28025 0.31211 0.08104 -0.07800
C 	C 	0.19887 0.39254 0.08103 -0.05100
C 	C 	0.08087 0.59107 0.08084 0.09900
C 	C 	0.24990 0.08808 0.26663 0.05700
C 	C 	0.12820 0.09183 0.26669 -0.11300
C 	C 	0.53690 0.84800 0.08013 0.14700
C 	C 	0.71975 0.68789 0.08104 -0.07900
C 	C 	0.80113 0.60746 0.08103 -0.04700
C 	C 	0.91913 0.40893 0.08084 0.09500
C 	C 	0.75010 0.91192 0.26663 0.12000
C 	C 	0.87180 0.90817 0.26669 -0.05800
C 	C 	0.53690 0.15200 0.41987 0.12100
C 	C 	0.71975 0.31211 0.41896 -0.07900
C 	C 	0.80113 0.39254 0.41897 -0.04900
C 	C 	0.91913 0.59107 0.41916 0.09900
C 	C 	0.75010 0.08808 0.23337 0.05700
C 	C 	0.87180 0.09183 0.23331 -0.11300
C 	C 	0.46310 0.84800 0.41987 0.14700
C 	C 	0.28025 0.68789 0.41896 -0.08000
C 	C 	0.19887 0.60746 0.41897 -0.04500
C 	C 	0.08087 0.40893 0.41916 0.09400
C 	C 	0.24990 0.91192 0.23337 0.12000
C 	C 	0.12820 0.90817 0.23331 -0.05800
C 	C 	0.93465 0.00000 0.75000 -0.00400
C 	C 	0.06535 0.00000 0.75000 -0.00400
C 	C 	0.06535 0.00000 0.25000 -0.00300
C 	C 	0.93465 0.00000 0.25000 -0.00300
C 	C 	0.58293 0.80764 -0.00000 -0.13900
C 	C 	0.67443 0.72807 -0.00000 0.09200
C 	C 	0.84170 0.56580 -0.00000 0.04600
C 	C 	0.93330 0.47806 -0.00000 -0.06000
C 	C 	0.41707 0.19236 -0.00000 -0.14000
C 	C 	0.32557 0.27193 -0.00000 0.08400
C 	C 	0.15830 0.43420 -0.00000 0.04800
C 	C 	0.06670 0.52194 -0.00000 -0.06200
C 	C 	0.41707 0.80764 0.50000 -0.14600
C 	C 	0.32557 0.72807 0.50000 0.08800
C 	C 	0.15830 0.56580 0.50000 0.03800
C 	C 	0.06670 0.47806 0.50000 -0.06400
C 	C 	0.58293 0.19236 0.50000 -0.14800
C 	C 	0.67443 0.27193 0.50000 0.07900
C 	C 	0.84170 0.43420 0.50000 0.03900
C 	C 	0.93330 0.52194 0.50000 -0.06600
N 	N 	0.50048 0.88025 0.85257 -0.25300
N 	N 	0.90630 0.35832 0.85731 -0.13000
N 	N 	0.49952 0.11975 0.85257 -0.27500
N 	N 	0.09370 0.64168 0.85731 -0.12700
N 	N 	0.49952 0.88025 0.64743 -0.25500
N 	N 	0.09370 0.35832 0.64269 -0.13100
N 	N 	0.50048 0.11975 0.64743 -0.27600
N 	N 	0.90630 0.64168 0.64269 -0.12800
N 	N 	0.49952 0.11975 0.14743 -0.27500
N 	N 	0.09370 0.64168 0.14269 -0.12800
N 	N 	0.50048 0.88025 0.14743 -0.25400
N 	N 	0.90630 0.35832 0.14269 -0.13100
N 	N 	0.50048 0.11975 0.35257 -0.27600
N 	N 	0.90630 0.64168 0.35731 -0.12800
N 	N 	0.49952 0.88025 0.35257 -0.25500
N 	N 	0.09370 0.35832 0.35731 -0.13100
N 	N 	0.68946 0.00000 0.75000 -0.28700
N 	N 	0.31054 0.00000 0.75000 -0.28700
N 	N 	0.31054 0.00000 0.25000 -0.28700
N 	N 	0.68946 0.00000 0.25000 -0.28700
