data_crystal

_cell_length_a 14.56650
_cell_length_b 14.56650
_cell_length_c 31.68350
_cell_angle_alpha 90.00000
_cell_angle_beta  90.00000
_cell_angle_gamma 120.00000

_symmetry_space_group_name_	'P 1'
_symmetry_space_group_name_H-M	'P 1'

loop_
_symmetry_equiv_pos_as_xyz
  x,y,z

loop_
_atom_site_label
_atom_site_type_symbol
_atom_site_fract_x
_atom_site_fract_y
_atom_site_fract_z
_atom_site_charge
Ga	Ga	0.92568 0.07432 0.25000 2.06600
Ga	Ga	0.14864 0.07432 0.25000 2.06200
Ga	Ga	0.92568 0.85136 0.25000 2.07200
Ga	Ga	0.07432 0.92568 0.75000 2.06500
Ga	Ga	0.85136 0.92568 0.75000 2.07200
Ga	Ga	0.07432 0.14864 0.75000 2.06200
Ga	Ga	0.58325 0.16650 0.41509 2.06600
Ga	Ga	0.58325 0.41674 0.41509 2.06600
Ga	Ga	0.83349 0.41674 0.41509 2.06600
Ga	Ga	0.41675 0.83350 0.91509 2.06500
Ga	Ga	0.41675 0.58326 0.91509 2.06600
Ga	Ga	0.16651 0.58326 0.91509 2.06600
Ga	Ga	0.41675 0.83350 0.58491 2.06500
Ga	Ga	0.16651 0.58326 0.58491 2.06600
Ga	Ga	0.41675 0.58326 0.58491 2.06600
Ga	Ga	0.58325 0.16650 0.08491 2.06600
Ga	Ga	0.83349 0.41674 0.08491 2.06500
Ga	Ga	0.58325 0.41674 0.08491 2.06600
Ga	Ga	0.50000 0.00000 0.50000 2.08800
Ga	Ga	0.50000 0.50000 0.50000 2.09300
Ga	Ga	-0.00000 0.50000 0.50000 2.08800
Ga	Ga	0.50000 0.00000 -0.00000 2.07400
Ga	Ga	0.50000 0.50000 -0.00000 2.07800
Ga	Ga	-0.00000 0.50000 -0.00000 2.07500
H 	H 	0.72340 0.00000 0.35520 -0.06000
H 	H 	0.27660 0.27660 0.35520 -0.01400
H 	H 	-0.00000 0.72340 0.35520 -0.02400
H 	H 	0.27660 0.00000 0.85520 -0.01500
H 	H 	0.72340 0.72340 0.85520 -0.01400
H 	H 	0.00000 0.27660 0.85520 -0.05100
H 	H 	0.72340 0.00000 0.64480 -0.02400
H 	H 	-0.00000 0.72340 0.64480 -0.05800
H 	H 	0.27660 0.27660 0.64480 -0.01400
H 	H 	0.27660 -0.00000 0.14480 -0.06200
H 	H 	0.00000 0.27660 0.14480 -0.02100
H 	H 	0.72340 0.72340 0.14480 -0.02100
H 	H 	0.27660 0.00000 0.64480 -0.01900
H 	H 	0.72340 0.72340 0.64480 -0.01800
H 	H 	0.00000 0.27660 0.64480 -0.05400
H 	H 	0.72340 -0.00000 0.14480 -0.06400
H 	H 	0.27660 0.27660 0.14480 -0.01700
H 	H 	-0.00000 0.72340 0.14480 -0.02700
H 	H 	0.27660 0.00000 0.35520 -0.05700
H 	H 	0.00000 0.27660 0.35520 -0.01800
H 	H 	0.72340 0.72340 0.35520 -0.01800
H 	H 	0.72340 0.00000 0.85520 -0.02100
H 	H 	0.00000 0.72340 0.85520 -0.05500
H 	H 	0.27660 0.27660 0.85520 -0.01100
H 	H 	0.57490 0.78745 0.44770 0.00600
H 	H 	0.21255 0.42510 0.44770 0.01500
H 	H 	0.21255 0.78745 0.44770 0.00700
H 	H 	0.42510 0.21255 0.94770 0.03200
H 	H 	0.78745 0.57490 0.94770 0.02300
H 	H 	0.78745 0.21255 0.94770 0.02400
H 	H 	0.78745 0.21255 0.55230 0.00800
H 	H 	0.78745 0.57490 0.55230 0.00700
H 	H 	0.42510 0.21255 0.55230 0.01500
H 	H 	0.21255 0.78745 0.05230 -0.00900
H 	H 	0.21255 0.42510 0.05230 -0.00100
H 	H 	0.57490 0.78745 0.05230 -0.01000
C 	C 	0.61050 0.97520 0.42500 0.58900
C 	C 	0.70440 0.93510 0.36780 0.26000
C 	C 	0.64600 0.90570 0.40510 -0.28000
C 	C 	0.36470 0.38950 0.42500 0.54000
C 	C 	0.23070 0.29560 0.36780 0.17600
C 	C 	0.25970 0.35400 0.40510 -0.24200
C 	C 	0.02480 0.63530 0.42500 0.52000
C 	C 	0.06490 0.76930 0.36780 0.19500
C 	C 	0.09430 0.74030 0.40510 -0.25300
C 	C 	0.38950 0.02480 0.92500 0.50700
C 	C 	0.29560 0.06490 0.86780 0.16600
C 	C 	0.35400 0.09430 0.90510 -0.22300
C 	C 	0.63530 0.61050 0.92500 0.54000
C 	C 	0.76930 0.70440 0.86780 0.19400
C 	C 	0.74030 0.64600 0.90510 -0.24200
C 	C 	0.97520 0.36470 0.92500 0.57400
C 	C 	0.93510 0.23070 0.86780 0.24000
C 	C 	0.90570 0.25970 0.90510 -0.26100
C 	C 	0.63530 0.02480 0.57500 0.51800
C 	C 	0.76930 0.06490 0.63220 0.19300
C 	C 	0.74030 0.09430 0.59490 -0.25200
C 	C 	0.97520 0.61050 0.57500 0.58600
C 	C 	0.93510 0.70440 0.63220 0.25600
C 	C 	0.90570 0.64600 0.59490 -0.27800
C 	C 	0.38950 0.36470 0.57500 0.53900
C 	C 	0.29560 0.23070 0.63220 0.17600
C 	C 	0.35400 0.25970 0.59490 -0.24200
C 	C 	0.36470 0.97520 0.07500 0.59200
C 	C 	0.23070 0.93510 0.13220 0.26000
C 	C 	0.25970 0.90570 0.09490 -0.29200
C 	C 	0.02480 0.38950 0.07500 0.52100
C 	C 	0.06490 0.29560 0.13220 0.17800
C 	C 	0.09430 0.35400 0.09490 -0.25100
C 	C 	0.61050 0.63530 0.07500 0.55400
C 	C 	0.70440 0.76930 0.13220 0.20800
C 	C 	0.64600 0.74030 0.09490 -0.27200
C 	C 	0.38950 0.02480 0.57500 0.51300
C 	C 	0.29560 0.06490 0.63220 0.17200
C 	C 	0.35400 0.09430 0.59490 -0.23700
C 	C 	0.63530 0.61050 0.57500 0.54800
C 	C 	0.76930 0.70440 0.63220 0.20000
C 	C 	0.74030 0.64600 0.59490 -0.25700
C 	C 	0.97520 0.36470 0.57500 0.58200
C 	C 	0.93510 0.23070 0.63220 0.24600
C 	C 	0.90570 0.25970 0.59490 -0.27500
C 	C 	0.61050 0.97520 0.07500 0.59600
C 	C 	0.70440 0.93510 0.13220 0.26800
C 	C 	0.64600 0.90570 0.09490 -0.29500
C 	C 	0.36470 0.38950 0.07500 0.54500
C 	C 	0.23070 0.29560 0.13220 0.18200
C 	C 	0.25970 0.35400 0.09490 -0.25500
C 	C 	0.02480 0.63530 0.07500 0.52700
C 	C 	0.06490 0.76930 0.13220 0.20200
C 	C 	0.09430 0.74030 0.09490 -0.26700
C 	C 	0.36470 0.97520 0.42500 0.58500
C 	C 	0.23070 0.93510 0.36780 0.25200
C 	C 	0.25970 0.90570 0.40510 -0.27800
C 	C 	0.02480 0.38950 0.42500 0.51500
C 	C 	0.06490 0.29560 0.36780 0.17300
C 	C 	0.09430 0.35400 0.40510 -0.23700
C 	C 	0.61050 0.63530 0.42500 0.54800
C 	C 	0.70440 0.76930 0.36780 0.20200
C 	C 	0.64600 0.74030 0.40510 -0.25800
C 	C 	0.63530 0.02480 0.92500 0.51200
C 	C 	0.76930 0.06490 0.86780 0.18700
C 	C 	0.74030 0.09430 0.90510 -0.23700
C 	C 	0.97520 0.61050 0.92500 0.57900
C 	C 	0.93510 0.70440 0.86780 0.25000
C 	C 	0.90570 0.64600 0.90510 -0.26400
C 	C 	0.38950 0.36470 0.92500 0.53200
C 	C 	0.29560 0.23070 0.86780 0.16900
C 	C 	0.35400 0.25970 0.90510 -0.22700
C 	C 	0.79950 0.89975 0.30950 0.54900
C 	C 	0.73440 0.86720 0.34930 -0.27100
C 	C 	0.61560 0.80780 0.42330 0.20500
C 	C 	0.10025 0.20050 0.30950 0.53800
C 	C 	0.13280 0.26560 0.34930 -0.24500
C 	C 	0.19220 0.38440 0.42330 0.17100
C 	C 	0.10025 0.89975 0.30950 0.54900
C 	C 	0.13280 0.86720 0.34930 -0.27200
C 	C 	0.19220 0.80780 0.42330 0.19800
C 	C 	0.20050 0.10025 0.80950 0.53600
C 	C 	0.26560 0.13280 0.84930 -0.23800
C 	C 	0.38440 0.19220 0.92330 0.16100
C 	C 	0.89975 0.79950 0.80950 0.54700
C 	C 	0.86720 0.73440 0.84930 -0.26200
C 	C 	0.80780 0.61560 0.92330 0.19400
C 	C 	0.89975 0.10025 0.80950 0.54700
C 	C 	0.86720 0.13280 0.84930 -0.26300
C 	C 	0.80780 0.19220 0.92330 0.18600
C 	C 	0.89975 0.10025 0.69050 0.54800
C 	C 	0.86720 0.13280 0.65070 -0.27000
C 	C 	0.80780 0.19220 0.57670 0.19600
C 	C 	0.89975 0.79950 0.69050 0.54800
C 	C 	0.86720 0.73440 0.65070 -0.26900
C 	C 	0.80780 0.61560 0.57670 0.20300
C 	C 	0.20050 0.10025 0.69050 0.53800
C 	C 	0.26560 0.13280 0.65070 -0.24500
C 	C 	0.38440 0.19220 0.57670 0.17100
C 	C 	0.10025 0.89975 0.19050 0.55100
C 	C 	0.13280 0.86720 0.15070 -0.27900
C 	C 	0.19220 0.80780 0.07670 0.20800
C 	C 	0.10025 0.20050 0.19050 0.53900
C 	C 	0.13280 0.26560 0.15070 -0.25200
C 	C 	0.19220 0.38440 0.07670 0.18000
C 	C 	0.79950 0.89975 0.19050 0.55100
C 	C 	0.73440 0.86720 0.15070 -0.27800
C 	C 	0.61560 0.80780 0.07670 0.21400
O 	O 	0.82470 0.98950 0.29512 -0.63900
O 	O 	0.62330 0.05500 0.40455 -0.66600
O 	O 	0.57080 0.94890 0.46110 -0.60100
O 	O 	0.16480 0.17530 0.29512 -0.66500
O 	O 	0.43170 0.37670 0.40455 -0.63800
O 	O 	0.37810 0.42920 0.46110 -0.60100
O 	O 	0.01050 0.83520 0.29512 -0.66600
O 	O 	0.94500 0.56830 0.40455 -0.61500
O 	O 	0.05110 0.62190 0.46110 -0.60100
O 	O 	0.17530 0.01050 0.79512 -0.67000
O 	O 	0.37670 0.94500 0.90455 -0.61200
O 	O 	0.42920 0.05110 0.96110 -0.57000
O 	O 	0.83520 0.82470 0.79512 -0.65000
O 	O 	0.56830 0.62330 0.90455 -0.63200
O 	O 	0.62190 0.57080 0.96110 -0.56800
O 	O 	0.98950 0.16480 0.79512 -0.64800
O 	O 	0.05500 0.43170 0.90455 -0.65900
O 	O 	0.94890 0.37810 0.96110 -0.57100
O 	O 	0.83520 0.01050 0.70488 -0.66700
O 	O 	0.56830 0.94500 0.59545 -0.61400
O 	O 	0.62190 0.05110 0.53890 -0.60100
O 	O 	0.98950 0.82470 0.70488 -0.64000
O 	O 	0.05500 0.62330 0.59545 -0.66500
O 	O 	0.94890 0.57080 0.53890 -0.60100
O 	O 	0.17530 0.16480 0.70488 -0.66500
O 	O 	0.37670 0.43170 0.59545 -0.63800
O 	O 	0.42920 0.37810 0.53890 -0.60100
O 	O 	0.16480 0.98950 0.20488 -0.64800
O 	O 	0.43170 0.05500 0.09545 -0.67100
O 	O 	0.37810 0.94890 0.03890 -0.62800
O 	O 	0.01050 0.17530 0.20488 -0.67200
O 	O 	0.94500 0.37670 0.09545 -0.62200
O 	O 	0.05110 0.42920 0.03890 -0.62700
O 	O 	0.82470 0.83520 0.20488 -0.65200
O 	O 	0.62330 0.56830 0.09545 -0.64200
O 	O 	0.57080 0.62190 0.03890 -0.62600
O 	O 	0.17530 0.01050 0.70488 -0.67200
O 	O 	0.37670 0.94500 0.59545 -0.61600
O 	O 	0.42920 0.05110 0.53890 -0.60100
O 	O 	0.83520 0.82470 0.70488 -0.65100
O 	O 	0.56830 0.62330 0.59545 -0.63800
O 	O 	0.62190 0.57080 0.53890 -0.60000
O 	O 	0.98950 0.16480 0.70488 -0.64900
O 	O 	0.05500 0.43170 0.59545 -0.66400
O 	O 	0.94890 0.37810 0.53890 -0.60200
O 	O 	0.82470 0.98950 0.20488 -0.64000
O 	O 	0.62330 0.05500 0.09545 -0.67200
O 	O 	0.57080 0.94890 0.03890 -0.62700
O 	O 	0.16480 0.17530 0.20488 -0.66600
O 	O 	0.43170 0.37670 0.09545 -0.64300
O 	O 	0.37810 0.42920 0.03890 -0.62700
O 	O 	0.01050 0.83520 0.20488 -0.66600
O 	O 	0.94500 0.56830 0.09545 -0.62100
O 	O 	0.05110 0.62190 0.03890 -0.62700
O 	O 	0.16480 0.98950 0.29512 -0.64700
O 	O 	0.43170 0.05500 0.40455 -0.66600
O 	O 	0.37810 0.94890 0.46110 -0.60200
O 	O 	0.01050 0.17530 0.29512 -0.67100
O 	O 	0.94500 0.37670 0.40455 -0.61700
O 	O 	0.05110 0.42920 0.46110 -0.60100
O 	O 	0.82470 0.83520 0.29512 -0.65100
O 	O 	0.62330 0.56830 0.40455 -0.63800
O 	O 	0.57080 0.62190 0.46110 -0.60000
O 	O 	0.83520 0.01050 0.79512 -0.66600
O 	O 	0.56830 0.94500 0.90455 -0.61000
O 	O 	0.62190 0.05110 0.96110 -0.57000
O 	O 	0.98950 0.82470 0.79512 -0.63900
O 	O 	0.05500 0.62330 0.90455 -0.66000
O 	O 	0.94890 0.57080 0.96110 -0.57000
O 	O 	0.17530 0.16480 0.79512 -0.66400
O 	O 	0.37670 0.43170 0.90455 -0.63300
O 	O 	0.42920 0.37810 0.96110 -0.56900
O 	O 	0.56860 0.13720 0.47450 -0.74300
O 	O 	0.56860 0.43140 0.47450 -0.73800
O 	O 	0.86280 0.43140 0.47450 -0.73100
O 	O 	0.43140 0.86280 0.97450 -0.69700
O 	O 	0.43140 0.56860 0.97450 -0.70300
O 	O 	0.13720 0.56860 0.97450 -0.70900
O 	O 	0.43140 0.86280 0.52550 -0.73100
O 	O 	0.13720 0.56860 0.52550 -0.74300
O 	O 	0.43140 0.56860 0.52550 -0.73800
O 	O 	0.56860 0.13720 0.02550 -0.77400
O 	O 	0.86280 0.43140 0.02550 -0.76100
O 	O 	0.56860 0.43140 0.02550 -0.76800
O 	O 	-0.00000 0.00000 0.25000 -1.20600
O 	O 	-0.00000 0.00000 0.75000 -1.20400
O 	O 	0.53600 0.26800 0.41860 -0.83200
O 	O 	0.73200 0.46400 0.41860 -0.82900
O 	O 	0.73200 0.26800 0.41860 -0.83000
O 	O 	0.46400 0.73200 0.91860 -0.82200
O 	O 	0.26800 0.53600 0.91860 -0.82600
O 	O 	0.26800 0.73200 0.91860 -0.82400
O 	O 	0.26800 0.73200 0.58140 -0.83100
O 	O 	0.26800 0.53600 0.58140 -0.83200
O 	O 	0.46400 0.73200 0.58140 -0.82900
O 	O 	0.73200 0.26800 0.08140 -0.83700
O 	O 	0.73200 0.46400 0.08140 -0.83500
O 	O 	0.53600 0.26800 0.08140 -0.83900
