data_crystal

_cell_length_a 15.83300
_cell_length_b 16.08600
_cell_length_c 22.67000
_cell_angle_alpha 90.00000
_cell_angle_beta  90.00000
_cell_angle_gamma 90.00000

_symmetry_space_group_name_	'P 1'
_symmetry_space_group_name_H-M	'P 1'

loop_
_symmetry_equiv_pos_as_xyz
  x,y,z

loop_
_atom_site_label
_atom_site_type_symbol
_atom_site_fract_x
_atom_site_fract_y
_atom_site_fract_z
_atom_site_charge
Zn	Zn	0.68767 0.56107 0.25923 1.21800
Zn	Zn	0.83456 0.44472 0.25228 1.22000
Zn	Zn	0.18767 0.43893 0.74077 1.21800
Zn	Zn	0.33456 0.55528 0.74772 1.22100
Zn	Zn	0.68767 0.43893 0.75923 1.21800
Zn	Zn	0.83456 0.55528 0.75228 1.22000
Zn	Zn	0.18767 0.56107 0.24077 1.21800
Zn	Zn	0.33456 0.44472 0.24772 1.22100
H 	H 	0.77820 0.71860 0.11770 0.03500
H 	H 	0.84080 0.80170 0.04570 0.24900
H 	H 	0.03900 0.64230 0.03900 0.18000
H 	H 	0.97790 0.56300 0.11210 -0.01500
H 	H 	0.93930 0.65760 0.92820 0.17800
H 	H 	0.00430 0.57060 0.85900 -0.00800
H 	H 	0.22020 0.70420 0.87440 0.00900
H 	H 	0.15530 0.78880 0.94460 0.23900
H 	H 	0.75530 0.28420 0.38940 0.05000
H 	H 	0.69970 0.19420 0.46110 0.23300
H 	H 	0.48190 0.32940 0.45960 0.15800
H 	H 	0.54010 0.41930 0.39040 0.00100
H 	H 	0.58980 0.32510 0.57540 0.17200
H 	H 	0.51920 0.41250 0.64010 -0.00300
H 	H 	0.30800 0.27620 0.62040 0.01500
H 	H 	0.37770 0.18700 0.55640 0.24100
H 	H 	0.72300 0.73350 0.27340 0.01000
H 	H 	0.65950 0.86250 0.28640 0.14500
H 	H 	0.43280 0.74940 0.27190 0.10800
H 	H 	0.50340 0.62150 0.26490 -0.00300
H 	H 	0.43670 0.90500 0.28090 0.09800
H 	H 	0.58950 0.10610 0.27460 0.09600
H 	H 	0.58890 0.26140 0.27660 0.10900
H 	H 	0.51850 0.38600 0.26900 -0.00200
H 	H 	0.30160 0.26700 0.24940 0.01100
H 	H 	0.36710 0.14080 0.25880 0.14500
H 	H 	0.27820 0.28140 0.88230 0.03900
H 	H 	0.34080 0.19830 0.95430 0.24300
H 	H 	0.53900 0.35770 0.96100 0.16100
H 	H 	0.47790 0.43700 0.88790 -0.00600
H 	H 	0.43930 0.34240 0.07180 0.16400
H 	H 	0.50430 0.42940 0.14100 -0.00000
H 	H 	0.72020 0.29580 0.12560 0.01400
H 	H 	0.65530 0.21120 0.05540 0.23100
H 	H 	0.25530 0.71580 0.61060 0.05400
H 	H 	0.19970 0.80580 0.53890 0.22800
H 	H 	0.98190 0.67060 0.54040 0.14200
H 	H 	0.04010 0.58070 0.60960 0.01100
H 	H 	0.08980 0.67490 0.42460 0.15000
H 	H 	0.01920 0.58750 0.35990 0.02500
H 	H 	0.80800 0.72380 0.37960 0.02600
H 	H 	0.87770 0.81300 0.44360 0.22800
H 	H 	0.22300 0.26650 0.72660 0.00600
H 	H 	0.15950 0.13750 0.71360 0.15400
H 	H 	0.93280 0.25060 0.72810 0.12100
H 	H 	0.00340 0.37850 0.73510 -0.00800
H 	H 	0.93670 0.09500 0.71910 0.10700
H 	H 	0.08950 0.89390 0.72540 0.08500
H 	H 	0.08890 0.73860 0.72340 0.09100
H 	H 	0.01850 0.61400 0.73100 0.02000
H 	H 	0.80160 0.73300 0.75060 0.01600
H 	H 	0.86710 0.85920 0.74120 0.13400
H 	H 	0.77820 0.28140 0.61770 0.03400
H 	H 	0.84080 0.19830 0.54570 0.24800
H 	H 	0.03900 0.35770 0.53900 0.17800
H 	H 	0.97790 0.43700 0.61210 -0.01600
H 	H 	0.93930 0.34240 0.42820 0.17900
H 	H 	0.00430 0.42940 0.35900 -0.01000
H 	H 	0.22020 0.29580 0.37440 0.00700
H 	H 	0.15530 0.21120 0.44460 0.24000
H 	H 	0.75530 0.71580 0.88940 0.05000
H 	H 	0.69970 0.80580 0.96110 0.23300
H 	H 	0.48190 0.67060 0.95960 0.15800
H 	H 	0.54010 0.58070 0.89040 0.00100
H 	H 	0.58980 0.67490 0.07540 0.17200
H 	H 	0.51920 0.58750 0.14010 -0.00300
H 	H 	0.30800 0.72380 0.12040 0.01500
H 	H 	0.37770 0.81300 0.05640 0.24100
H 	H 	0.72300 0.26650 0.77340 0.01000
H 	H 	0.65950 0.13750 0.78640 0.14500
H 	H 	0.43280 0.25060 0.77190 0.10800
H 	H 	0.50340 0.37850 0.76490 -0.00300
H 	H 	0.43670 0.09500 0.78090 0.09800
H 	H 	0.58950 0.89390 0.77460 0.09600
H 	H 	0.58890 0.73860 0.77660 0.10900
H 	H 	0.51850 0.61400 0.76900 -0.00200
H 	H 	0.30160 0.73300 0.74940 0.01100
H 	H 	0.36710 0.85920 0.75880 0.14500
H 	H 	0.27820 0.71860 0.38230 0.03900
H 	H 	0.34080 0.80170 0.45430 0.24400
H 	H 	0.53900 0.64230 0.46100 0.16100
H 	H 	0.47790 0.56300 0.38790 -0.00600
H 	H 	0.43930 0.65760 0.57180 0.16400
H 	H 	0.50430 0.57060 0.64100 -0.00000
H 	H 	0.72020 0.70420 0.62560 0.01400
H 	H 	0.65530 0.78880 0.55540 0.23100
H 	H 	0.25530 0.28420 0.11060 0.05400
H 	H 	0.19970 0.19420 0.03890 0.22900
H 	H 	0.98190 0.32940 0.04040 0.14100
H 	H 	0.04010 0.41930 0.10960 0.01100
H 	H 	0.08980 0.32510 0.92460 0.15200
H 	H 	0.01920 0.41250 0.85990 0.02200
H 	H 	0.80800 0.27620 0.87960 0.02500
H 	H 	0.87770 0.18700 0.94360 0.23000
H 	H 	0.22300 0.73350 0.22660 0.00500
H 	H 	0.15950 0.86250 0.21360 0.15400
H 	H 	0.93280 0.74940 0.22810 0.12200
H 	H 	0.00340 0.62150 0.23510 -0.00900
H 	H 	0.93670 0.90500 0.21910 0.10800
H 	H 	0.08950 0.10610 0.22540 0.08400
H 	H 	0.08890 0.26140 0.22340 0.08900
H 	H 	0.01850 0.38600 0.23100 0.02200
H 	H 	0.80160 0.26700 0.25060 0.01700
H 	H 	0.86710 0.14080 0.24120 0.13300
C 	C 	0.83380 0.57970 0.16970 0.43300
C 	C 	0.87070 0.63230 0.12300 -0.22800
C 	C 	0.83170 0.70320 0.10210 0.20000
C 	C 	0.86870 0.75280 0.05890 -0.29100
C 	C 	0.94630 0.73080 0.03520 0.38200
C 	C 	0.98630 0.65860 0.05530 -0.32100
C 	C 	0.94950 0.61130 0.09840 0.20400
C 	C 	0.99430 0.78640 0.99010 -0.53300
C 	C 	0.05520 0.84110 0.02610 0.98800
C 	C 	0.93590 0.84480 0.95480 0.97000
C 	C 	0.04040 0.73210 0.94440 0.40300
C 	C 	0.99670 0.66700 0.91780 -0.32400
C 	C 	0.03490 0.61530 0.87620 0.20600
C 	C 	0.11790 0.62970 0.86030 -0.21900
C 	C 	0.16320 0.69440 0.88550 0.20700
C 	C 	0.12420 0.74470 0.92720 -0.29900
C 	C 	0.16200 0.57380 0.81630 0.42600
C 	C 	0.69290 0.41850 0.33840 0.40800
C 	C 	0.65380 0.36070 0.38450 -0.18200
C 	C 	0.70020 0.29360 0.40460 0.15700
C 	C 	0.66710 0.23960 0.44700 -0.24400
C 	C 	0.58480 0.25330 0.46840 0.34000
C 	C 	0.53790 0.32050 0.44610 -0.26100
C 	C 	0.57220 0.37380 0.40480 0.15900
C 	C 	0.54160 0.19560 0.51360 -0.49000
C 	C 	0.48330 0.13650 0.47670 0.96100
C 	C 	0.60440 0.14240 0.54890 0.96900
C 	C 	0.49000 0.24840 0.55750 0.37200
C 	C 	0.53190 0.31550 0.58400 -0.29200
C 	C 	0.49000 0.36740 0.62230 0.18700
C 	C 	0.40490 0.35430 0.63520 -0.22200
C 	C 	0.36540 0.28680 0.61080 0.20700
C 	C 	0.40660 0.23360 0.57250 -0.29500
C 	C 	0.35800 0.41360 0.67410 0.43000
C 	C 	0.66310 0.73700 0.27410 0.12300
C 	C 	0.62580 0.81440 0.28050 -0.13000
C 	C 	0.53840 0.82030 0.27820 0.16500
C 	C 	0.49280 0.74780 0.27270 -0.15200
C 	C 	0.53530 0.67120 0.26830 0.11800
C 	C 	0.49650 0.90170 0.27940 0.01600
C 	C 	0.52950 0.10740 0.27360 0.01100
C 	C 	0.48530 0.18750 0.26860 0.16500
C 	C 	0.52940 0.26180 0.27130 -0.15900
C 	C 	0.48750 0.33560 0.26630 0.11800
C 	C 	0.36100 0.26560 0.25520 0.12300
C 	C 	0.39930 0.19060 0.26060 -0.14100
C 	C 	0.33380 0.42030 0.83030 0.42800
C 	C 	0.37070 0.36770 0.87700 -0.21400
C 	C 	0.33170 0.29680 0.89790 0.18700
C 	C 	0.36870 0.24720 0.94110 -0.27600
C 	C 	0.44630 0.26920 0.96480 0.36300
C 	C 	0.48630 0.34140 0.94470 -0.28600
C 	C 	0.44950 0.38870 0.90160 0.18300
C 	C 	0.49430 0.21360 0.00990 -0.50500
C 	C 	0.55520 0.15890 0.97390 0.97300
C 	C 	0.43590 0.15520 0.04520 0.96400
C 	C 	0.54040 0.26790 0.05560 0.36500
C 	C 	0.49670 0.33300 0.08220 -0.27900
C 	C 	0.53490 0.38470 0.12380 0.17100
C 	C 	0.61790 0.37030 0.13970 -0.20100
C 	C 	0.66320 0.30560 0.11450 0.18700
C 	C 	0.62420 0.25530 0.07280 -0.27500
C 	C 	0.66200 0.42620 0.18370 0.42000
C 	C 	0.19290 0.58150 0.66160 0.40500
C 	C 	0.15380 0.63930 0.61550 -0.17000
C 	C 	0.20020 0.70640 0.59540 0.14600
C 	C 	0.16710 0.76040 0.55300 -0.22900
C 	C 	0.08480 0.74670 0.53160 0.32100
C 	C 	0.03790 0.67950 0.55390 -0.22800
C 	C 	0.07220 0.62620 0.59520 0.14000
C 	C 	0.04160 0.80440 0.48640 -0.45900
C 	C 	0.98330 0.86350 0.52330 0.94200
C 	C 	0.10440 0.85760 0.45110 0.96100
C 	C 	0.99000 0.75160 0.44250 0.32200
C 	C 	0.03190 0.68450 0.41600 -0.22500
C 	C 	0.99000 0.63260 0.37770 0.12000
C 	C 	0.90490 0.64570 0.36480 -0.18800
C 	C 	0.86540 0.71320 0.38920 0.17300
C 	C 	0.90660 0.76640 0.42750 -0.25800
C 	C 	0.85800 0.58640 0.32590 0.41700
C 	C 	0.16310 0.26300 0.72590 0.13700
C 	C 	0.12580 0.18560 0.71950 -0.15200
C 	C 	0.03840 0.17970 0.72180 0.20500
C 	C 	0.99280 0.25220 0.72730 -0.19600
C 	C 	0.03530 0.32880 0.73170 0.14600
C 	C 	0.99650 0.09830 0.72060 -0.01700
C 	C 	0.02950 0.89260 0.72640 0.04800
C 	C 	0.98530 0.81250 0.73140 0.11700
C 	C 	0.02940 0.73820 0.72870 -0.10000
C 	C 	0.98750 0.66440 0.73370 0.06700
C 	C 	0.86100 0.73440 0.74480 0.10500
C 	C 	0.89930 0.80940 0.73940 -0.11100
C 	C 	0.83380 0.42030 0.66970 0.43200
C 	C 	0.87070 0.36770 0.62300 -0.22700
C 	C 	0.83170 0.29680 0.60210 0.20000
C 	C 	0.86870 0.24720 0.55890 -0.29100
C 	C 	0.94630 0.26920 0.53520 0.38200
C 	C 	0.98630 0.34140 0.55530 -0.31900
C 	C 	0.94950 0.38870 0.59840 0.20300
C 	C 	0.99430 0.21360 0.49010 -0.53400
C 	C 	0.05520 0.15890 0.52610 0.98600
C 	C 	0.93590 0.15520 0.45480 0.97000
C 	C 	0.04040 0.26790 0.44440 0.40600
C 	C 	0.99670 0.33300 0.41780 -0.32800
C 	C 	0.03490 0.38470 0.37620 0.20900
C 	C 	0.11790 0.37030 0.36030 -0.22100
C 	C 	0.16320 0.30560 0.38550 0.20900
C 	C 	0.12420 0.25530 0.42720 -0.30100
C 	C 	0.16200 0.42620 0.31630 0.42700
C 	C 	0.69290 0.58150 0.83840 0.40800
C 	C 	0.65380 0.63930 0.88450 -0.18200
C 	C 	0.70020 0.70640 0.90460 0.15600
C 	C 	0.66710 0.76040 0.94700 -0.24300
C 	C 	0.58480 0.74670 0.96840 0.33900
C 	C 	0.53790 0.67950 0.94610 -0.26100
C 	C 	0.57220 0.62620 0.90480 0.15900
C 	C 	0.54160 0.80440 0.01360 -0.48900
C 	C 	0.48330 0.86350 0.97670 0.96000
C 	C 	0.60440 0.85760 0.04890 0.96800
C 	C 	0.49000 0.75160 0.05750 0.37100
C 	C 	0.53190 0.68450 0.08400 -0.29200
C 	C 	0.49000 0.63260 0.12230 0.18600
C 	C 	0.40490 0.64570 0.13520 -0.22100
C 	C 	0.36540 0.71320 0.11080 0.20700
C 	C 	0.40660 0.76640 0.07250 -0.29500
C 	C 	0.35800 0.58640 0.17410 0.43000
C 	C 	0.66310 0.26300 0.77410 0.12300
C 	C 	0.62580 0.18560 0.78050 -0.13000
C 	C 	0.53840 0.17970 0.77820 0.16500
C 	C 	0.49280 0.25220 0.77270 -0.15200
C 	C 	0.53530 0.32880 0.76830 0.11800
C 	C 	0.49650 0.09830 0.77940 0.01600
C 	C 	0.52950 0.89260 0.77360 0.01100
C 	C 	0.48530 0.81250 0.76860 0.16500
C 	C 	0.52940 0.73820 0.77130 -0.15900
C 	C 	0.48750 0.66440 0.76630 0.11800
C 	C 	0.36100 0.73440 0.75520 0.12300
C 	C 	0.39930 0.80940 0.76060 -0.14100
C 	C 	0.33380 0.57970 0.33030 0.42800
C 	C 	0.37070 0.63230 0.37700 -0.21500
C 	C 	0.33170 0.70320 0.39790 0.18800
C 	C 	0.36870 0.75280 0.44110 -0.27600
C 	C 	0.44630 0.73080 0.46480 0.36400
C 	C 	0.48630 0.65860 0.44470 -0.28700
C 	C 	0.44950 0.61130 0.40160 0.18400
C 	C 	0.49430 0.78640 0.50990 -0.50600
C 	C 	0.55520 0.84110 0.47390 0.97400
C 	C 	0.43590 0.84480 0.54520 0.96400
C 	C 	0.54040 0.73210 0.55560 0.36600
C 	C 	0.49670 0.66700 0.58220 -0.27900
C 	C 	0.53490 0.61530 0.62380 0.17100
C 	C 	0.61790 0.62970 0.63970 -0.20100
C 	C 	0.66320 0.69440 0.61450 0.18700
C 	C 	0.62420 0.74470 0.57280 -0.27500
C 	C 	0.66200 0.57380 0.68370 0.42000
C 	C 	0.19290 0.41850 0.16160 0.40500
C 	C 	0.15380 0.36070 0.11550 -0.17100
C 	C 	0.20020 0.29360 0.09540 0.14600
C 	C 	0.16710 0.23960 0.05300 -0.23000
C 	C 	0.08480 0.25330 0.03160 0.32300
C 	C 	0.03790 0.32050 0.05390 -0.22800
C 	C 	0.07220 0.37380 0.09520 0.14000
C 	C 	0.04160 0.19560 0.98640 -0.46200
C 	C 	0.98330 0.13650 0.02330 0.94300
C 	C 	0.10440 0.14240 0.95110 0.96200
C 	C 	0.99000 0.24840 0.94250 0.32700
C 	C 	0.03190 0.31550 0.91600 -0.23200
C 	C 	0.99000 0.36740 0.87770 0.12600
C 	C 	0.90490 0.35430 0.86480 -0.19100
C 	C 	0.86540 0.28680 0.88920 0.17600
C 	C 	0.90660 0.23360 0.92750 -0.26200
C 	C 	0.85800 0.41360 0.82590 0.41800
C 	C 	0.16310 0.73700 0.22590 0.13900
C 	C 	0.12580 0.81440 0.21950 -0.15400
C 	C 	0.03840 0.82030 0.22180 0.20900
C 	C 	0.99280 0.74780 0.22730 -0.20000
C 	C 	0.03530 0.67120 0.23170 0.14800
C 	C 	0.99650 0.90170 0.22060 -0.02100
C 	C 	0.02950 0.10740 0.22640 0.05100
C 	C 	0.98530 0.18750 0.23140 0.11200
C 	C 	0.02940 0.26180 0.22870 -0.09500
C 	C 	0.98750 0.33560 0.23370 0.06300
C 	C 	0.86100 0.26560 0.24480 0.10400
C 	C 	0.89930 0.19060 0.23940 -0.10900
N 	N 	0.61850 0.66710 0.26880 -0.25400
N 	N 	0.54090 0.96820 0.27820 -0.02200
N 	N 	0.48740 0.03880 0.27660 -0.02300
N 	N 	0.40360 0.33870 0.25770 -0.25200
N 	N 	0.11850 0.33290 0.73120 -0.26100
N 	N 	0.04090 0.03180 0.72180 -0.01000
N 	N 	0.98740 0.96120 0.72340 -0.03600
N 	N 	0.90360 0.66130 0.74230 -0.24100
N 	N 	0.61850 0.33290 0.76880 -0.25400
N 	N 	0.54090 0.03180 0.77820 -0.02200
N 	N 	0.48740 0.96120 0.77660 -0.02300
N 	N 	0.40360 0.66130 0.75770 -0.25200
N 	N 	0.11850 0.66710 0.23120 -0.26200
N 	N 	0.04090 0.96820 0.22180 -0.00900
N 	N 	0.98740 0.03880 0.22340 -0.03700
N 	N 	0.90360 0.33870 0.24230 -0.24100
O 	O 	0.76290 0.60410 0.19100 -0.45400
O 	O 	0.87290 0.51670 0.18500 -0.47200
O 	O 	0.23340 0.59570 0.79920 -0.47500
O 	O 	0.12370 0.50850 0.80120 -0.44900
O 	O 	0.76650 0.40170 0.32260 -0.46000
O 	O 	0.64770 0.47880 0.32140 -0.45400
O 	O 	0.39690 0.47660 0.69350 -0.45500
O 	O 	0.28230 0.39730 0.68520 -0.46900
O 	O 	0.26290 0.39590 0.80900 -0.45300
O 	O 	0.37290 0.48330 0.81500 -0.46900
O 	O 	0.73340 0.40430 0.20080 -0.47300
O 	O 	0.62370 0.49150 0.19880 -0.44700
O 	O 	0.26650 0.59830 0.67740 -0.45800
O 	O 	0.14770 0.52120 0.67860 -0.45300
O 	O 	0.89690 0.52340 0.30650 -0.45400
O 	O 	0.78230 0.60270 0.31480 -0.46600
O 	O 	0.76290 0.39590 0.69100 -0.45400
O 	O 	0.87290 0.48330 0.68500 -0.47200
O 	O 	0.23340 0.40430 0.29920 -0.47500
O 	O 	0.12370 0.49150 0.30120 -0.44900
O 	O 	0.76650 0.59830 0.82260 -0.46000
O 	O 	0.64770 0.52120 0.82140 -0.45400
O 	O 	0.39690 0.52340 0.19350 -0.45500
O 	O 	0.28230 0.60270 0.18520 -0.46900
O 	O 	0.26290 0.60410 0.30900 -0.45300
O 	O 	0.37290 0.51670 0.31500 -0.46900
O 	O 	0.73340 0.59570 0.70080 -0.47300
O 	O 	0.62370 0.50850 0.69880 -0.44700
O 	O 	0.26650 0.40170 0.17740 -0.45800
O 	O 	0.14770 0.47880 0.17860 -0.45300
O 	O 	0.89690 0.47660 0.80650 -0.45500
O 	O 	0.78230 0.39730 0.81480 -0.46700
F 	F 	0.01450 0.87810 0.07110 -0.42800
F 	F 	0.11650 0.79550 0.05107 -0.50000
F 	F 	0.09080 0.90160 0.99540 -0.40600
F 	F 	0.97680 0.88070 0.90977 -0.43300
F 	F 	0.90180 0.90570 0.98660 -0.40500
F 	F 	0.87060 0.80240 0.93050 -0.50400
F 	F 	0.42100 0.17670 0.45080 -0.50000
F 	F 	0.52810 0.09970 0.43320 -0.41700
F 	F 	0.45050 0.07450 0.50930 -0.38700
F 	F 	0.64050 0.08200 0.51690 -0.39900
F 	F 	0.56520 0.10280 0.59407 -0.42100
F 	F 	0.66540 0.18750 0.57267 -0.51700
F 	F 	0.51450 0.12190 0.92890 -0.43000
F 	F 	0.61650 0.20450 0.94893 -0.49900
F 	F 	0.59080 0.09840 0.00460 -0.40400
F 	F 	0.47680 0.11930 0.09023 -0.42900
F 	F 	0.40180 0.09430 0.01340 -0.40200
F 	F 	0.37060 0.19760 0.06950 -0.50200
F 	F 	0.92100 0.82330 0.54920 -0.49900
F 	F 	0.02810 0.90030 0.56680 -0.41000
F 	F 	0.95050 0.92550 0.49070 -0.38600
F 	F 	0.14050 0.91800 0.48310 -0.39600
F 	F 	0.06520 0.89720 0.40593 -0.41700
F 	F 	0.16540 0.81250 0.42733 -0.51500
F 	F 	0.01450 0.12190 0.57110 -0.42800
F 	F 	0.11650 0.20450 0.55107 -0.50100
F 	F 	0.09080 0.09840 0.49540 -0.40400
F 	F 	0.97680 0.11930 0.40977 -0.43300
F 	F 	0.90180 0.09430 0.48660 -0.40500
F 	F 	0.87060 0.19760 0.43050 -0.50400
F 	F 	0.42100 0.82330 0.95080 -0.50000
F 	F 	0.52810 0.90030 0.93320 -0.41700
F 	F 	0.45050 0.92550 0.00930 -0.38600
F 	F 	0.64050 0.91800 0.01690 -0.39900
F 	F 	0.56520 0.89720 0.09407 -0.42100
F 	F 	0.66540 0.81250 0.07267 -0.51700
F 	F 	0.51450 0.87810 0.42890 -0.43000
F 	F 	0.61650 0.79550 0.44893 -0.50000
F 	F 	0.59080 0.90160 0.50460 -0.40400
F 	F 	0.47680 0.88070 0.59023 -0.42900
F 	F 	0.40180 0.90570 0.51340 -0.40300
F 	F 	0.37060 0.80240 0.56950 -0.50200
F 	F 	0.92100 0.17670 0.04920 -0.49900
F 	F 	0.02810 0.09970 0.06680 -0.40900
F 	F 	0.95050 0.07450 0.99070 -0.38600
F 	F 	0.14050 0.08200 0.98310 -0.39700
F 	F 	0.06520 0.10280 0.90593 -0.41700
F 	F 	0.16540 0.18750 0.92733 -0.51500
