data_crystal

_cell_length_a 10.58500
_cell_length_b 17.70300
_cell_length_c 17.70300
_cell_angle_alpha 120.00000
_cell_angle_beta  90.00000
_cell_angle_gamma 90.00000

_symmetry_space_group_name_	'P 1'
_symmetry_space_group_name_H-M	'P 1'

loop_
_symmetry_equiv_pos_as_xyz
  x,y,z

loop_
_atom_site_label
_atom_site_type_symbol
_atom_site_fract_x
_atom_site_fract_y
_atom_site_fract_z
_atom_site_charge
Zn	Zn	0.01946 0.54014 0.07109 1.20400
Zn	Zn	0.35279 0.53095 0.45986 1.21300
Zn	Zn	0.68613 0.92891 0.46905 1.21300
Zn	Zn	0.51946 0.45986 0.92891 1.21300
Zn	Zn	0.85279 0.46905 0.54014 1.21700
Zn	Zn	0.18613 0.07109 0.53095 1.20900
H 	H 	0.92770 0.46900 0.91870 0.07000
H 	H 	0.05490 0.61820 0.95410 0.04600
H 	H 	0.91080 0.61670 0.97380 0.07200
H 	H 	0.77510 0.50650 0.83460 0.12700
H 	H 	0.10250 0.61350 0.81820 0.13800
H 	H 	0.05100 0.57250 0.67730 -0.11400
H 	H 	0.73570 0.46600 0.69200 -0.01600
H 	H 	0.12940 0.47020 0.84540 0.17300
H 	H 	0.16130 0.32410 0.80520 -0.21900
H 	H 	0.90760 0.35700 0.78210 0.39100
H 	H 	0.97640 0.26760 0.72490 0.41200
H 	H 	0.01960 0.35040 0.72120 0.36500
H 	H 	0.97080 0.34630 0.92400 0.50200
H 	H 	0.11100 0.31890 0.92620 0.49800
H 	H 	0.01930 0.25440 0.85250 0.49300
H 	H 	0.26103 0.44970 0.53100 0.06600
H 	H 	0.38823 0.33590 0.38180 0.06900
H 	H 	0.24413 0.35710 0.38330 0.06700
H 	H 	0.10843 0.32810 0.49350 0.10100
H 	H 	0.43583 0.20470 0.38650 0.08300
H 	H 	0.38433 0.10480 0.42750 -0.03600
H 	H 	0.06903 0.22600 0.53400 -0.01200
H 	H 	0.46273 0.37520 0.52980 0.18300
H 	H 	0.49463 0.48110 0.67590 -0.24600
H 	H 	0.24093 0.42510 0.64300 0.46000
H 	H 	0.30973 0.45730 0.73240 0.47500
H 	H 	0.35293 0.37080 0.64960 0.46400
H 	H 	0.30413 0.57770 0.65370 0.47500
H 	H 	0.44433 0.60730 0.68110 0.49800
H 	H 	0.35263 0.59810 0.74560 0.49900
H 	H 	0.59437 0.08130 0.55030 0.06600
H 	H 	0.72157 0.04590 0.66410 0.07400
H 	H 	0.57747 0.02620 0.64290 0.07300
H 	H 	0.44177 0.16540 0.67190 0.10900
H 	H 	0.76917 0.18180 0.79530 0.09000
H 	H 	0.71767 0.32270 0.89520 -0.03500
H 	H 	0.40237 0.30800 0.77400 -0.00500
H 	H 	0.79607 0.15460 0.62480 0.18900
H 	H 	0.82797 0.19480 0.51890 -0.24500
H 	H 	0.57427 0.21790 0.57490 0.46600
H 	H 	0.64307 0.27510 0.54270 0.48100
H 	H 	0.68627 0.27880 0.62920 0.47100
H 	H 	0.63747 0.07600 0.42230 0.48100
H 	H 	0.77767 0.07380 0.39270 0.50800
H 	H 	0.68597 0.14750 0.40190 0.50800
H 	H 	0.42770 0.53100 0.08130 0.06600
H 	H 	0.55490 0.38180 0.04590 0.07300
H 	H 	0.41080 0.38330 0.02620 0.07200
H 	H 	0.27510 0.49350 0.16540 0.10800
H 	H 	0.60250 0.38650 0.18180 0.08600
H 	H 	0.55100 0.42750 0.32270 -0.03600
H 	H 	0.23570 0.53400 0.30800 -0.00800
H 	H 	0.62940 0.52980 0.15460 0.18500
H 	H 	0.66130 0.67590 0.19480 -0.24900
H 	H 	0.40760 0.64300 0.21790 0.46500
H 	H 	0.47640 0.73240 0.27510 0.47900
H 	H 	0.51960 0.64960 0.27880 0.46700
H 	H 	0.47080 0.65370 0.07600 0.47900
H 	H 	0.61100 0.68110 0.07380 0.50400
H 	H 	0.51930 0.74560 0.14750 0.50600
H 	H 	0.76103 0.55030 0.46900 0.06600
H 	H 	0.88823 0.66410 0.61820 0.07900
H 	H 	0.74413 0.64290 0.61670 0.07400
H 	H 	0.60843 0.67190 0.50650 0.10900
H 	H 	0.93583 0.79530 0.61350 0.09400
H 	H 	0.88433 0.89520 0.57250 -0.03000
H 	H 	0.56903 0.77400 0.46600 -0.00400
H 	H 	0.96273 0.62480 0.47020 0.18500
H 	H 	0.99463 0.51890 0.32410 -0.23400
H 	H 	0.74093 0.57490 0.35700 0.46400
H 	H 	0.80973 0.54270 0.26760 0.48300
H 	H 	0.85293 0.62920 0.35040 0.47100
H 	H 	0.80413 0.42230 0.34630 0.48100
H 	H 	0.94433 0.39270 0.31890 0.51200
H 	H 	0.85263 0.40190 0.25440 0.51100
H 	H 	0.09437 0.91870 0.44970 0.06000
H 	H 	0.22157 0.95410 0.33590 0.06300
H 	H 	0.07747 0.97380 0.35710 0.05500
H 	H 	0.94177 0.83460 0.32810 0.09900
H 	H 	0.26917 0.81820 0.20470 0.07500
H 	H 	0.21767 0.67730 0.10480 -0.03200
H 	H 	0.90237 0.69200 0.22600 -0.00300
H 	H 	0.29607 0.84540 0.37520 0.17900
H 	H 	0.32797 0.80520 0.48110 -0.23500
H 	H 	0.07427 0.78210 0.42510 0.43300
H 	H 	0.14307 0.72490 0.45730 0.45200
H 	H 	0.18627 0.72120 0.37080 0.44200
H 	H 	0.13747 0.92400 0.57770 0.45400
H 	H 	0.27767 0.92620 0.60730 0.48200
H 	H 	0.18597 0.85250 0.59810 0.48100
C 	C 	0.22480 0.46810 0.94620 0.46200
C 	C 	0.97870 0.58300 0.93450 -0.18800
C 	C 	0.94680 0.56470 0.84390 0.24700
C 	C 	0.83310 0.51980 0.80350 -0.25600
C 	C 	0.02740 0.58380 0.79440 -0.39600
C 	C 	0.99550 0.55840 0.70910 0.27200
C 	C 	0.80970 0.49620 0.71800 0.12700
C 	C 	0.10850 0.45010 0.88640 -0.51300
C 	C 	0.08130 0.35230 0.83280 0.88100
C 	C 	0.98740 0.32970 0.75820 -1.22600
C 	C 	0.04200 0.31450 0.88890 -1.56200
C 	C 	0.55813 0.47810 0.53190 0.46900
C 	C 	0.31203 0.35150 0.41700 -0.20000
C 	C 	0.28013 0.27920 0.43530 0.15100
C 	C 	0.16643 0.28370 0.48020 -0.20500
C 	C 	0.36073 0.21060 0.41620 -0.22200
C 	C 	0.32883 0.15070 0.44160 0.10000
C 	C 	0.14303 0.22180 0.50380 0.08400
C 	C 	0.44183 0.43630 0.54990 -0.52500
C 	C 	0.41463 0.48050 0.64770 0.98000
C 	C 	0.32073 0.42850 0.67030 -1.48000
C 	C 	0.37533 0.57440 0.68550 -1.54700
C 	C 	0.89147 0.05380 0.52190 0.46700
C 	C 	0.64537 0.06550 0.64850 -0.20600
C 	C 	0.61347 0.15610 0.72080 0.15800
C 	C 	0.49977 0.19650 0.71630 -0.20700
C 	C 	0.69407 0.20560 0.78940 -0.22400
C 	C 	0.66217 0.29090 0.84930 0.10500
C 	C 	0.47637 0.28200 0.77820 0.08800
C 	C 	0.77517 0.11360 0.56370 -0.52800
C 	C 	0.74797 0.16720 0.51950 0.99000
C 	C 	0.65407 0.24180 0.57150 -1.49600
C 	C 	0.70867 0.11110 0.42560 -1.56600
C 	C 	0.72480 0.53190 0.05380 0.47100
C 	C 	0.47870 0.41700 0.06550 -0.20500
C 	C 	0.44680 0.43530 0.15610 0.15600
C 	C 	0.33310 0.48020 0.19650 -0.20800
C 	C 	0.52740 0.41620 0.20560 -0.22400
C 	C 	0.49550 0.44160 0.29090 0.10200
C 	C 	0.30970 0.50380 0.28200 0.08800
C 	C 	0.60850 0.54990 0.11360 -0.52900
C 	C 	0.58130 0.64770 0.16720 0.98800
C 	C 	0.48740 0.67030 0.24180 -1.49200
C 	C 	0.54200 0.68550 0.11110 -1.56100
C 	C 	0.05813 0.52190 0.46810 0.43700
C 	C 	0.81203 0.64850 0.58300 -0.20700
C 	C 	0.78013 0.72080 0.56470 0.15900
C 	C 	0.66643 0.71630 0.51980 -0.20700
C 	C 	0.86073 0.78940 0.58380 -0.22300
C 	C 	0.82883 0.84930 0.55840 0.10500
C 	C 	0.64303 0.77820 0.49620 0.08900
C 	C 	0.94183 0.56370 0.45010 -0.49900
C 	C 	0.91463 0.51950 0.35230 0.98100
C 	C 	0.82073 0.57150 0.32970 -1.48900
C 	C 	0.87533 0.42560 0.31450 -1.56100
C 	C 	0.39147 0.94620 0.47810 0.46700
C 	C 	0.14537 0.93450 0.35150 -0.17900
C 	C 	0.11347 0.84390 0.27920 0.10600
C 	C 	0.99977 0.80350 0.28370 -0.15300
C 	C 	0.19407 0.79440 0.21060 -0.20000
C 	C 	0.16217 0.70910 0.15070 0.08400
C 	C 	0.97637 0.71800 0.22180 0.10300
C 	C 	0.27517 0.88640 0.43630 -0.51200
C 	C 	0.24797 0.83280 0.48050 0.94100
C 	C 	0.15407 0.75820 0.42850 -1.42300
C 	C 	0.20867 0.88890 0.57440 -1.49600
N 	N 	0.89100 0.51520 0.66970 -0.30200
N 	N 	0.99840 0.50260 0.93940 -0.16800
N 	N 	0.22433 0.15450 0.48480 -0.27300
N 	N 	0.33173 0.43680 0.49740 -0.18000
N 	N 	0.55767 0.33030 0.84550 -0.27100
N 	N 	0.66507 0.06060 0.56320 -0.17900
N 	N 	0.39100 0.48480 0.33030 -0.27200
N 	N 	0.49840 0.49740 0.06060 -0.17900
N 	N 	0.72433 0.84550 0.51520 -0.27100
N 	N 	0.83173 0.56320 0.50260 -0.17900
N 	N 	0.05767 0.66970 0.15450 -0.28500
N 	N 	0.16507 0.93940 0.43680 -0.18500
Cl	Cl	0.02010 0.45440 0.13116 -0.61400
Cl	Cl	0.35343 0.67676 0.54560 -0.59000
Cl	Cl	0.68677 0.86884 0.32324 -0.58300
Cl	Cl	0.52010 0.54560 0.86884 -0.58900
Cl	Cl	0.85343 0.32324 0.45440 -0.57200
Cl	Cl	0.18677 0.13116 0.67676 -0.59800
O 	O 	0.32530 0.43380 0.90630 -0.47300
O 	O 	0.21370 0.51490 0.02670 -0.48200
O 	O 	0.65863 0.47250 0.56620 -0.47400
O 	O 	0.54703 0.51180 0.48510 -0.48200
O 	O 	0.99197 0.09370 0.52750 -0.45300
O 	O 	0.88037 0.97330 0.48820 -0.47100
O 	O 	0.82530 0.56620 0.09370 -0.46500
O 	O 	0.71370 0.48510 0.97330 -0.48200
O 	O 	0.15863 0.52750 0.43380 -0.47400
O 	O 	0.04703 0.48820 0.51490 -0.48800
O 	O 	0.49197 0.90630 0.47250 -0.47400
O 	O 	0.38037 0.02670 0.51180 -0.48200
