data_crystal

_cell_length_a 10.78820
_cell_length_b 12.30720
_cell_length_c 14.28930
_cell_angle_alpha 83.18300
_cell_angle_beta  69.59000
_cell_angle_gamma 65.17400

_symmetry_space_group_name_	'P 1'
_symmetry_space_group_name_H-M	'P 1'

loop_
_symmetry_equiv_pos_as_xyz
  x,y,z

loop_
_atom_site_label
_atom_site_type_symbol
_atom_site_fract_x
_atom_site_fract_y
_atom_site_fract_z
_atom_site_charge
Zn	Zn	0.24843 0.44568 0.96180 1.24000
Zn	Zn	0.21081 0.20392 0.09321 1.19200
Zn	Zn	0.75157 0.55432 0.03820 1.20100
Zn	Zn	0.78919 0.79608 0.90679 1.20500
Zn	Zn	0.50000 0.50000 -0.00000 1.20400
H 	H 	0.50190 0.68140 0.02230 0.28900
H 	H 	0.07400 0.35520 0.00310 0.29600
H 	H 	0.45400 0.28470 0.32970 0.13800
H 	H 	0.49310 0.31360 0.16200 -0.02700
H 	H 	0.32820 0.65860 0.19970 -0.03100
H 	H 	0.38090 0.31310 0.61730 0.13600
H 	H 	0.86050 0.77380 0.12740 -0.00300
H 	H 	0.20200 0.85750 0.05820 0.01600
H 	H 	0.22420 0.63980 0.81200 -0.00800
H 	H 	0.28400 0.63920 0.36790 0.12700
H 	H 	0.12550 0.22640 0.45550 0.14100
H 	H 	0.01280 0.54260 0.32580 0.13900
H 	H 	0.79240 0.10050 0.19440 0.02200
H 	H 	0.19760 0.13630 0.30700 -0.04100
H 	H 	0.34920 0.29690 0.78500 -0.01800
H 	H 	0.24980 0.66680 0.64730 0.13000
H 	H 	0.09170 0.44290 0.17750 -0.07000
H 	H 	0.49810 0.31860 0.97770 0.29500
H 	H 	0.92600 0.64480 0.99690 0.33100
H 	H 	0.54600 0.71530 0.67030 0.13700
H 	H 	0.50690 0.68640 0.83800 0.00300
H 	H 	0.67180 0.34140 0.80030 -0.02700
H 	H 	0.61910 0.68690 0.38270 0.13800
H 	H 	0.13950 0.22620 0.87260 0.01800
H 	H 	0.79800 0.14250 0.94180 0.03800
H 	H 	0.77580 0.36020 0.18800 -0.02700
H 	H 	0.71600 0.36080 0.63210 0.12500
H 	H 	0.87450 0.77360 0.54450 0.14000
H 	H 	0.98720 0.45740 0.67420 0.13700
H 	H 	0.20760 0.89950 0.80560 0.03000
H 	H 	0.80240 0.86370 0.69300 -0.04000
H 	H 	0.65080 0.70310 0.21500 -0.02800
H 	H 	0.75020 0.33320 0.35270 0.13100
H 	H 	0.90830 0.55710 0.82250 -0.06000
C 	C 	0.15750 0.67420 0.03610 0.39400
C 	C 	0.42900 0.36140 0.30460 -0.23900
C 	C 	0.45140 0.38050 0.20450 0.13300
C 	C 	0.04780 0.79640 0.08550 -0.15400
C 	C 	0.35490 0.58250 0.22580 0.12800
C 	C 	0.34770 0.38080 0.65690 -0.22600
C 	C 	0.89730 0.82980 0.12760 0.06700
C 	C 	0.10300 0.87740 0.08500 0.07300
C 	C 	0.00490 0.99290 0.12660 -0.13400
C 	C 	0.25430 0.57350 0.77150 0.13500
C 	C 	0.80180 0.94350 0.16940 -0.15400
C 	C 	0.06070 0.39470 0.40690 0.24000
C 	C 	0.32870 0.57140 0.32610 -0.23200
C 	C 	0.11730 0.27200 0.39950 -0.27500
C 	C 	0.06210 0.08220 0.12300 0.33600
C 	C 	0.05090 0.45940 0.32270 -0.25800
C 	C 	0.31720 0.49360 0.61560 0.20800
C 	C 	0.85470 0.02360 0.16800 0.07400
C 	C 	0.16020 0.21950 0.31130 0.18100
C 	C 	0.32790 0.37180 0.75670 0.13300
C 	C 	0.36860 0.45970 0.36460 0.21300
C 	C 	0.27030 0.59080 0.67360 -0.23500
C 	C 	0.09780 0.39950 0.23480 0.15900
C 	C 	0.84250 0.32580 0.96390 0.39100
C 	C 	0.57100 0.63860 0.69540 -0.23200
C 	C 	0.54860 0.61950 0.79550 0.13200
C 	C 	0.95220 0.20360 0.91450 -0.12500
C 	C 	0.64510 0.41750 0.77420 0.12500
C 	C 	0.65230 0.61920 0.34310 -0.23000
C 	C 	0.10270 0.17020 0.87240 0.07000
C 	C 	0.89700 0.12260 0.91500 0.07100
C 	C 	0.99510 0.00710 0.87340 -0.11500
C 	C 	0.74570 0.42650 0.22850 0.13800
C 	C 	0.19820 0.05650 0.83060 -0.13600
C 	C 	0.93930 0.60530 0.59310 0.23800
C 	C 	0.67130 0.42860 0.67390 -0.22800
C 	C 	0.88270 0.72800 0.60050 -0.27400
C 	C 	0.93790 0.91780 0.87700 0.33400
C 	C 	0.94910 0.54060 0.67730 -0.25600
C 	C 	0.68280 0.50640 0.38440 0.21000
C 	C 	0.14530 0.97640 0.83200 0.08400
C 	C 	0.83980 0.78050 0.68870 0.18000
C 	C 	0.67210 0.62820 0.24330 0.13500
C 	C 	0.63140 0.54030 0.63540 0.20900
C 	C 	0.72970 0.40920 0.32640 -0.24000
C 	C 	0.90220 0.60050 0.76520 0.15800
S 	S 	0.60390 0.98570 0.22340 0.62900
S 	S 	0.39610 0.01430 0.77660 0.61900
N 	N 	0.41820 0.48680 0.16410 -0.26600
N 	N 	0.27910 0.46740 0.81340 -0.29100
N 	N 	0.15230 0.28060 0.22830 -0.31100
N 	N 	0.33250 0.51840 0.51160 -0.09700
N 	N 	0.35200 0.43570 0.46930 -0.09700
N 	N 	0.01660 0.44560 0.50020 -0.10900
N 	N 	0.58180 0.51320 0.83590 -0.24600
N 	N 	0.72090 0.53260 0.18660 -0.30600
N 	N 	0.84770 0.71940 0.77170 -0.30600
N 	N 	0.66750 0.48160 0.48840 -0.09800
N 	N 	0.64800 0.56430 0.53070 -0.09700
N 	N 	0.98340 0.55440 0.49980 -0.11100
O 	O 	0.57880 0.91040 0.17450 -0.34500
O 	O 	0.57230 0.95410 0.32050 -0.30000
O 	O 	0.53560 0.10190 0.19320 -0.34100
O 	O 	0.10250 0.60430 0.03110 -0.53700
O 	O 	0.29120 0.64950 0.00410 -0.49100
O 	O 	0.57550 0.61480 0.01000 -0.83500
O 	O 	0.15550 0.33730 0.00990 -0.84700
O 	O 	0.19970 0.04940 0.09570 -0.47900
O 	O 	0.97830 0.18760 0.14370 -0.37900
O 	O 	0.42120 0.08960 0.82550 -0.31900
O 	O 	0.42770 0.04590 0.67950 -0.29900
O 	O 	0.46440 0.89810 0.80680 -0.31500
O 	O 	0.89750 0.39570 0.96890 -0.47000
O 	O 	0.70880 0.35050 0.99590 -0.42900
O 	O 	0.42450 0.38520 0.99000 -0.76600
O 	O 	0.84450 0.66270 0.99010 -0.78800
O 	O 	0.80030 0.95060 0.90430 -0.44700
O 	O 	0.02170 0.81240 0.85630 -0.35100
