data_crystal

_cell_length_a 11.98000
_cell_length_b 17.98200
_cell_length_c 18.62500
_cell_angle_alpha 90.00000
_cell_angle_beta  90.00000
_cell_angle_gamma 90.00000

_symmetry_space_group_name_	'P 1'
_symmetry_space_group_name_H-M	'P 1'

loop_
_symmetry_equiv_pos_as_xyz
  x,y,z

loop_
_atom_site_label
_atom_site_type_symbol
_atom_site_fract_x
_atom_site_fract_y
_atom_site_fract_z
_atom_site_charge
Zn	Zn	0.38990 0.80265 0.50913 1.23000
Zn	Zn	0.11010 0.80265 0.49087 1.22800
Zn	Zn	0.61010 0.69735 0.50913 1.22900
Zn	Zn	0.88990 0.69735 0.49087 1.23200
Zn	Zn	0.61010 0.19735 0.49087 1.23000
Zn	Zn	0.88990 0.19735 0.50913 1.23200
Zn	Zn	0.38990 0.30265 0.49087 1.23100
Zn	Zn	0.11010 0.30265 0.50913 1.22900
H 	H 	0.37450 0.74370 0.29280 0.10100
H 	H 	0.38430 0.82990 0.73580 0.00300
H 	H 	0.39690 0.06580 0.32620 0.09600
H 	H 	0.38690 0.83150 0.85880 0.09200
H 	H 	0.35740 0.80690 0.96820 0.00900
H 	H 	0.29090 0.83740 0.35730 0.00200
H 	H 	0.35530 0.80510 0.09100 0.09200
H 	H 	0.15120 0.91970 0.36280 0.09200
H 	H 	0.51090 0.89430 0.16220 0.09300
H 	H 	0.42830 0.98850 0.22770 0.01400
H 	H 	0.05130 0.01030 0.42260 0.00300
H 	H 	0.29720 0.15580 0.38620 -0.00500
H 	H 	0.12550 0.74370 0.70720 0.10300
H 	H 	0.11570 0.82990 0.26420 0.00200
H 	H 	0.10310 0.06580 0.67380 0.09500
H 	H 	0.11310 0.83150 0.14120 0.09100
H 	H 	0.14260 0.80690 0.03180 0.00900
H 	H 	0.20910 0.83740 0.64270 -0.00100
H 	H 	0.14470 0.80510 0.90900 0.09100
H 	H 	0.34880 0.91970 0.63720 0.09300
H 	H 	0.98910 0.89430 0.83780 0.11200
H 	H 	0.07170 0.98850 0.77230 0.00500
H 	H 	0.44870 0.01030 0.57740 0.00600
H 	H 	0.20280 0.15580 0.61380 -0.00500
H 	H 	0.62550 0.75630 0.29280 0.10100
H 	H 	0.61570 0.67010 0.73580 0.00300
H 	H 	0.60310 0.43420 0.32620 0.09500
H 	H 	0.61310 0.66850 0.85880 0.09300
H 	H 	0.64260 0.69310 0.96820 0.00900
H 	H 	0.70910 0.66260 0.35730 0.00300
H 	H 	0.64470 0.69490 0.09100 0.09300
H 	H 	0.84880 0.58030 0.36280 0.09200
H 	H 	0.48910 0.60570 0.16220 0.09300
H 	H 	0.57170 0.51150 0.22770 0.01500
H 	H 	0.94870 0.48970 0.42260 0.01000
H 	H 	0.70280 0.34420 0.38620 -0.00400
H 	H 	0.87450 0.75630 0.70720 0.10100
H 	H 	0.88430 0.67010 0.26420 0.00200
H 	H 	0.89690 0.43420 0.67380 0.09700
H 	H 	0.88690 0.66850 0.14120 0.09100
H 	H 	0.85740 0.69310 0.03180 0.00800
H 	H 	0.79090 0.66260 0.64270 0.00500
H 	H 	0.85530 0.69490 0.90900 0.08900
H 	H 	0.65120 0.58030 0.63720 0.09100
H 	H 	0.01090 0.60570 0.83780 0.07800
H 	H 	0.92830 0.51150 0.77230 0.02100
H 	H 	0.55130 0.48970 0.57740 0.00700
H 	H 	0.79720 0.34420 0.61380 -0.00300
H 	H 	0.62550 0.25630 0.70720 0.10100
H 	H 	0.61570 0.17010 0.26420 0.00300
H 	H 	0.60310 0.93420 0.67380 0.09500
H 	H 	0.61310 0.16850 0.14120 0.09300
H 	H 	0.64260 0.19310 0.03180 0.00900
H 	H 	0.70910 0.16260 0.64270 0.00300
H 	H 	0.64470 0.19490 0.90900 0.09300
H 	H 	0.84880 0.08030 0.63720 0.09300
H 	H 	0.48910 0.10570 0.83780 0.09300
H 	H 	0.57170 0.01150 0.77230 0.01500
H 	H 	0.94870 0.98970 0.57740 0.01000
H 	H 	0.70280 0.84420 0.61380 -0.00400
H 	H 	0.87450 0.25630 0.29280 0.10100
H 	H 	0.88430 0.17010 0.73580 0.00200
H 	H 	0.89690 0.93420 0.32620 0.09700
H 	H 	0.88690 0.16850 0.85880 0.09100
H 	H 	0.85740 0.19310 0.96820 0.00800
H 	H 	0.79090 0.16260 0.35730 0.00500
H 	H 	0.85530 0.19490 0.09100 0.09000
H 	H 	0.65120 0.08030 0.36280 0.09100
H 	H 	0.01090 0.10570 0.16220 0.07900
H 	H 	0.92830 0.01150 0.22770 0.02100
H 	H 	0.55130 0.98970 0.42260 0.00700
H 	H 	0.79720 0.84420 0.38620 -0.00300
H 	H 	0.37450 0.24370 0.70720 0.10100
H 	H 	0.38430 0.32990 0.26420 0.00300
H 	H 	0.39690 0.56580 0.67380 0.09600
H 	H 	0.38690 0.33150 0.14120 0.09200
H 	H 	0.35740 0.30690 0.03180 0.00900
H 	H 	0.29090 0.33740 0.64270 0.00200
H 	H 	0.35530 0.30510 0.90900 0.09200
H 	H 	0.15120 0.41970 0.63720 0.09100
H 	H 	0.51090 0.39430 0.83780 0.09300
H 	H 	0.42830 0.48850 0.77230 0.01400
H 	H 	0.05130 0.51030 0.57740 0.00300
H 	H 	0.29720 0.65580 0.61380 -0.00500
H 	H 	0.12550 0.24370 0.29280 0.10300
H 	H 	0.11570 0.32990 0.73580 0.00200
H 	H 	0.10310 0.56580 0.32620 0.09500
H 	H 	0.11310 0.33150 0.85880 0.09100
H 	H 	0.14260 0.30690 0.96820 0.00900
H 	H 	0.20910 0.33740 0.35730 -0.00100
H 	H 	0.14470 0.30510 0.09100 0.09100
H 	H 	0.34880 0.41970 0.36280 0.09300
H 	H 	0.98910 0.39430 0.16220 0.11000
H 	H 	0.07170 0.48850 0.22770 0.00600
H 	H 	0.44870 0.51030 0.42260 0.00600
H 	H 	0.20280 0.65580 0.38620 -0.00500
H 	H 	0.25000 0.40430 0.50000 0.22700
H 	H 	0.75000 0.09570 0.50000 0.22800
H 	H 	0.75000 0.59570 0.50000 0.22800
H 	H 	0.25000 0.90430 0.50000 0.22700
C 	C 	0.38450 0.79292 0.27880 -0.17700
C 	C 	0.43160 0.79769 0.76041 0.10600
C 	C 	0.44910 0.80884 0.21982 0.15500
C 	C 	0.32740 0.05418 0.34540 -0.18600
C 	C 	0.43250 0.79817 0.83443 -0.18000
C 	C 	0.28540 0.98228 0.33776 0.12700
C 	C 	0.34690 0.92307 0.29836 -0.08700
C 	C 	0.41530 0.78340 0.99253 0.04900
C 	C 	0.33420 0.84932 0.31753 0.05100
C 	C 	0.41430 0.78300 0.06660 -0.17100
C 	C 	0.18110 0.96718 0.36722 -0.19500
C 	C 	0.46580 0.88256 0.20126 -0.17000
C 	C 	0.41560 0.93921 0.24050 0.04600
C 	C 	0.16310 0.09275 0.40982 -0.19200
C 	C 	0.12070 0.02173 0.40304 0.10600
C 	C 	0.26740 0.10836 0.38120 0.11400
C 	C 	0.09800 0.15069 0.44770 0.44300
C 	C 	0.11550 0.79292 0.72120 -0.18800
C 	C 	0.06840 0.79769 0.23959 0.10600
C 	C 	0.05090 0.80884 0.78018 0.16600
C 	C 	0.17260 0.05418 0.65460 -0.18700
C 	C 	0.06750 0.79817 0.16557 -0.18000
C 	C 	0.21460 0.98228 0.66224 0.13000
C 	C 	0.15310 0.92307 0.70164 -0.09800
C 	C 	0.08470 0.78340 0.00747 0.04700
C 	C 	0.16580 0.84932 0.68247 0.06000
C 	C 	0.08570 0.78300 0.93340 -0.16900
C 	C 	0.31890 0.96718 0.63278 -0.19600
C 	C 	0.03420 0.88256 0.79874 -0.20100
C 	C 	0.08440 0.93921 0.75950 0.06400
C 	C 	0.33690 0.09275 0.59018 -0.19100
C 	C 	0.37930 0.02173 0.59696 0.10700
C 	C 	0.23260 0.10836 0.61880 0.11400
C 	C 	0.40200 0.15069 0.55230 0.44300
C 	C 	0.61550 0.70708 0.27880 -0.17600
C 	C 	0.56840 0.70231 0.76041 0.10600
C 	C 	0.55090 0.69116 0.21982 0.15400
C 	C 	0.67260 0.44582 0.34540 -0.18300
C 	C 	0.56750 0.70183 0.83443 -0.18000
C 	C 	0.71460 0.51772 0.33776 0.12500
C 	C 	0.65310 0.57693 0.29836 -0.08500
C 	C 	0.58470 0.71660 0.99253 0.04900
C 	C 	0.66580 0.65068 0.31753 0.05000
C 	C 	0.58570 0.71700 0.06660 -0.17100
C 	C 	0.81890 0.53282 0.36722 -0.19000
C 	C 	0.53420 0.61744 0.20126 -0.16900
C 	C 	0.58440 0.56079 0.24050 0.04500
C 	C 	0.83690 0.40725 0.40982 -0.18700
C 	C 	0.87930 0.47827 0.40304 0.10300
C 	C 	0.73260 0.39164 0.38120 0.11100
C 	C 	0.90200 0.34931 0.44770 0.44200
C 	C 	0.88450 0.70708 0.72120 -0.17100
C 	C 	0.93160 0.70231 0.23959 0.11500
C 	C 	0.94910 0.69116 0.78018 0.15300
C 	C 	0.82740 0.44582 0.65460 -0.18200
C 	C 	0.93250 0.70183 0.16557 -0.17000
C 	C 	0.78540 0.51772 0.66224 0.12300
C 	C 	0.84690 0.57693 0.70164 -0.07800
C 	C 	0.91530 0.71660 0.00747 0.05600
C 	C 	0.83420 0.65068 0.68247 0.04500
C 	C 	0.91430 0.71700 0.93340 -0.15900
C 	C 	0.68110 0.53282 0.63278 -0.19000
C 	C 	0.96580 0.61744 0.79874 -0.14500
C 	C 	0.91560 0.56079 0.75950 0.03200
C 	C 	0.66310 0.40725 0.59018 -0.18800
C 	C 	0.62070 0.47827 0.59696 0.10300
C 	C 	0.76740 0.39164 0.61880 0.11100
C 	C 	0.59800 0.34931 0.55230 0.44200
C 	C 	0.61550 0.20708 0.72120 -0.17600
C 	C 	0.56840 0.20231 0.23959 0.10600
C 	C 	0.55090 0.19116 0.78018 0.15400
C 	C 	0.67260 0.94582 0.65460 -0.18300
C 	C 	0.56750 0.20183 0.16557 -0.18000
C 	C 	0.71460 0.01772 0.66224 0.12500
C 	C 	0.65310 0.07693 0.70164 -0.08600
C 	C 	0.58470 0.21660 0.00747 0.04900
C 	C 	0.66580 0.15068 0.68247 0.05000
C 	C 	0.58570 0.21700 0.93340 -0.17100
C 	C 	0.81890 0.03282 0.63278 -0.19100
C 	C 	0.53420 0.11744 0.79874 -0.16900
C 	C 	0.58440 0.06079 0.75950 0.04500
C 	C 	0.83690 0.90725 0.59018 -0.18700
C 	C 	0.87930 0.97827 0.59696 0.10400
C 	C 	0.73260 0.89164 0.61880 0.11100
C 	C 	0.90200 0.84931 0.55230 0.44200
C 	C 	0.88450 0.20708 0.27880 -0.17100
C 	C 	0.93160 0.20231 0.76041 0.11400
C 	C 	0.94910 0.19116 0.21982 0.15300
C 	C 	0.82740 0.94582 0.34540 -0.18100
C 	C 	0.93250 0.20183 0.83443 -0.17100
C 	C 	0.78540 0.01772 0.33776 0.12300
C 	C 	0.84690 0.07693 0.29836 -0.07800
C 	C 	0.91530 0.21660 0.99253 0.05500
C 	C 	0.83420 0.15068 0.31753 0.04500
C 	C 	0.91430 0.21700 0.06660 -0.16000
C 	C 	0.68110 0.03282 0.36722 -0.19000
C 	C 	0.96580 0.11744 0.20126 -0.14700
C 	C 	0.91560 0.06079 0.24050 0.03300
C 	C 	0.66310 0.90725 0.40982 -0.18800
C 	C 	0.62070 0.97827 0.40304 0.10300
C 	C 	0.76740 0.89164 0.38120 0.11100
C 	C 	0.59800 0.84931 0.44770 0.44200
C 	C 	0.38450 0.29292 0.72120 -0.17700
C 	C 	0.43160 0.29769 0.23959 0.10600
C 	C 	0.44910 0.30884 0.78018 0.15400
C 	C 	0.32740 0.55418 0.65460 -0.18600
C 	C 	0.43250 0.29817 0.16557 -0.18000
C 	C 	0.28540 0.48228 0.66224 0.12700
C 	C 	0.34690 0.42307 0.70164 -0.08700
C 	C 	0.41530 0.28340 0.00747 0.04900
C 	C 	0.33420 0.34932 0.68247 0.05000
C 	C 	0.41430 0.28300 0.93340 -0.17200
C 	C 	0.18110 0.46718 0.63278 -0.19500
C 	C 	0.46580 0.38256 0.79874 -0.17000
C 	C 	0.41560 0.43921 0.75950 0.04600
C 	C 	0.16310 0.59275 0.59018 -0.19200
C 	C 	0.12070 0.52173 0.59696 0.10500
C 	C 	0.26740 0.60836 0.61880 0.11300
C 	C 	0.09800 0.65069 0.55230 0.44300
C 	C 	0.11550 0.29292 0.27880 -0.18700
C 	C 	0.06840 0.29769 0.76041 0.10600
C 	C 	0.05090 0.30884 0.21982 0.16500
C 	C 	0.17260 0.55418 0.34540 -0.18800
C 	C 	0.06750 0.29817 0.83443 -0.18000
C 	C 	0.21460 0.48228 0.33776 0.13100
C 	C 	0.15310 0.42307 0.29836 -0.09800
C 	C 	0.08470 0.28340 0.99253 0.04700
C 	C 	0.16580 0.34932 0.31753 0.05900
C 	C 	0.08570 0.28300 0.06660 -0.16900
C 	C 	0.31890 0.46718 0.36722 -0.19600
C 	C 	0.03420 0.38256 0.20126 -0.19900
C 	C 	0.08440 0.43921 0.24050 0.06300
C 	C 	0.33690 0.59275 0.40982 -0.19100
C 	C 	0.37930 0.52173 0.40304 0.10600
C 	C 	0.23260 0.60836 0.38120 0.11400
C 	C 	0.40200 0.65069 0.44770 0.44300
C 	C 	0.50000 0.75000 0.10500 0.15500
C 	C 	0.50000 0.75000 0.87350 0.12500
C 	C 	0.50000 0.75000 0.64155 0.44100
C 	C 	0.50000 0.75000 0.72215 -0.18400
C 	C 	0.50000 0.75000 0.95310 -0.08600
C 	C 	0.00000 0.75000 0.89500 0.14200
C 	C 	0.00000 0.75000 0.12650 0.11600
C 	C 	-0.00000 0.75000 0.35845 0.43100
C 	C 	-0.00000 0.75000 0.27785 -0.19300
C 	C 	-0.00000 0.75000 0.04690 -0.09300
C 	C 	0.50000 0.25000 0.89500 0.15500
C 	C 	0.50000 0.25000 0.12650 0.12500
C 	C 	0.50000 0.25000 0.35845 0.44100
C 	C 	0.50000 0.25000 0.27785 -0.18400
C 	C 	0.50000 0.25000 0.04690 -0.08600
C 	C 	0.00000 0.25000 0.10500 0.14300
C 	C 	0.00000 0.25000 0.87350 0.11600
C 	C 	-0.00000 0.25000 0.64155 0.43200
C 	C 	0.00000 0.25000 0.72215 -0.19200
C 	C 	-0.00000 0.25000 0.95310 -0.09300
N 	N 	0.50000 0.75000 0.18067 -0.18400
N 	N 	-0.00000 0.75000 0.81933 -0.18800
N 	N 	0.50000 0.25000 0.81933 -0.18400
N 	N 	-0.00000 0.25000 0.18067 -0.18700
O 	O 	0.42306 0.78439 0.61068 -0.51600
O 	O 	0.13960 0.21489 0.45150 -0.53200
O 	O 	0.00559 0.13234 0.47355 -0.52100
O 	O 	0.07694 0.78439 0.38932 -0.51600
O 	O 	0.36040 0.21489 0.54850 -0.53100
O 	O 	0.49441 0.13234 0.52645 -0.51600
O 	O 	0.57694 0.71561 0.61068 -0.51600
O 	O 	0.86040 0.28511 0.45150 -0.52900
O 	O 	0.99441 0.36766 0.47355 -0.51000
O 	O 	0.92306 0.71561 0.38932 -0.50700
O 	O 	0.63960 0.28511 0.54850 -0.53000
O 	O 	0.50559 0.36766 0.52645 -0.51600
O 	O 	0.57694 0.21561 0.38932 -0.51600
O 	O 	0.86040 0.78511 0.54850 -0.52900
O 	O 	0.99441 0.86766 0.52645 -0.51000
O 	O 	0.92306 0.21561 0.61068 -0.50800
O 	O 	0.63960 0.78511 0.45150 -0.53000
O 	O 	0.50559 0.86766 0.47355 -0.51600
O 	O 	0.42306 0.28439 0.38932 -0.51600
O 	O 	0.13960 0.71489 0.54850 -0.53300
O 	O 	0.00559 0.63234 0.52645 -0.52200
O 	O 	0.07694 0.28439 0.61068 -0.51600
O 	O 	0.36040 0.71489 0.45150 -0.53100
O 	O 	0.49441 0.63234 0.47355 -0.51600
O 	O 	0.25000 0.35254 0.50000 -0.70200
O 	O 	0.75000 0.14746 0.50000 -0.70100
O 	O 	0.75000 0.64746 0.50000 -0.70100
O 	O 	0.25000 0.85254 0.50000 -0.70200
