data_crystal

_cell_length_a 11.44140
_cell_length_b 15.13090
_cell_length_c 18.08550
_cell_angle_alpha 90.00000
_cell_angle_beta  90.00000
_cell_angle_gamma 90.00000

_symmetry_space_group_name_	'P 1'
_symmetry_space_group_name_H-M	'P 1'

loop_
_symmetry_equiv_pos_as_xyz
  x,y,z

loop_
_atom_site_label
_atom_site_type_symbol
_atom_site_fract_x
_atom_site_fract_y
_atom_site_fract_z
_atom_site_charge
Zn	Zn	0.50000 0.55213 0.09842 1.22100
Zn	Zn	0.50000 0.44787 0.90158 1.22100
Zn	Zn	0.50000 0.94787 0.59842 1.22100
Zn	Zn	0.50000 0.05213 0.40158 1.22100
H 	H 	0.71060 0.66700 0.05030 -0.00400
H 	H 	0.91200 0.67100 0.05160 0.08100
H 	H 	0.90800 0.43580 0.13690 0.08600
H 	H 	0.71450 0.44040 0.14010 -0.01000
H 	H 	0.71060 0.33300 0.94970 -0.00300
H 	H 	0.91200 0.32900 0.94840 0.08200
H 	H 	0.90800 0.56420 0.86310 0.08700
H 	H 	0.71450 0.55960 0.85990 -0.00900
H 	H 	0.28940 0.83300 0.55030 -0.00300
H 	H 	0.08800 0.82900 0.55160 0.08200
H 	H 	0.09200 0.06420 0.63690 0.08700
H 	H 	0.28550 0.05960 0.64010 -0.00900
H 	H 	0.28940 0.16700 0.44970 -0.00300
H 	H 	0.08800 0.17100 0.44840 0.08200
H 	H 	0.09200 0.93580 0.36310 0.08700
H 	H 	0.28550 0.94040 0.35990 -0.00900
H 	H 	0.28940 0.33300 0.94970 -0.00300
H 	H 	0.08800 0.32900 0.94840 0.08200
H 	H 	0.09200 0.56420 0.86310 0.08700
H 	H 	0.28550 0.55960 0.85990 -0.00900
H 	H 	0.28940 0.66700 0.05030 -0.00300
H 	H 	0.08800 0.67100 0.05160 0.08200
H 	H 	0.09200 0.43580 0.13690 0.08700
H 	H 	0.28550 0.44040 0.14010 -0.00900
H 	H 	0.71060 0.16700 0.44970 -0.00300
H 	H 	0.91200 0.17100 0.44840 0.08200
H 	H 	0.90800 0.93580 0.36310 0.08700
H 	H 	0.71450 0.94040 0.35990 -0.00900
H 	H 	0.71060 0.83300 0.55030 -0.00300
H 	H 	0.91200 0.82900 0.55160 0.08200
H 	H 	0.90800 0.06420 0.63690 0.08700
H 	H 	0.71450 0.05960 0.64010 -0.00900
H 	H 	0.50000 0.96180 0.83650 0.06500
H 	H 	0.50000 0.79660 0.01220 0.06000
H 	H 	0.50000 0.69960 0.80500 0.04900
H 	H 	0.50000 0.03820 0.16350 0.06500
H 	H 	0.50000 0.20340 0.98780 0.06000
H 	H 	0.50000 0.30040 0.19500 0.04900
H 	H 	0.50000 0.53820 0.33650 0.06400
H 	H 	0.50000 0.70340 0.51220 0.05900
H 	H 	0.50000 0.80040 0.30500 0.04900
H 	H 	0.50000 0.46180 0.66350 0.06400
H 	H 	0.50000 0.29660 0.48780 0.05900
H 	H 	0.50000 0.19960 0.69500 0.04900
C 	C 	0.75080 0.61890 0.06970 0.09700
C 	C 	0.87370 0.62170 0.07050 -0.15100
C 	C 	0.93540 0.55560 0.09770 0.07700
C 	C 	0.87040 0.48670 0.12040 -0.16600
C 	C 	0.75360 0.48870 0.12020 0.11600
C 	C 	0.75080 0.38110 0.93030 0.09700
C 	C 	0.87370 0.37830 0.92950 -0.15100
C 	C 	0.93540 0.44440 0.90230 0.07700
C 	C 	0.87040 0.51330 0.87960 -0.16600
C 	C 	0.75360 0.51130 0.87980 0.11600
C 	C 	0.24920 0.88110 0.56970 0.09700
C 	C 	0.12630 0.87830 0.57050 -0.15100
C 	C 	0.06460 0.94440 0.59770 0.07700
C 	C 	0.12960 0.01330 0.62040 -0.16500
C 	C 	0.24640 0.01130 0.62020 0.11700
C 	C 	0.24920 0.11890 0.43030 0.09700
C 	C 	0.12630 0.12170 0.42950 -0.15100
C 	C 	0.06460 0.05560 0.40230 0.07700
C 	C 	0.12960 0.98670 0.37960 -0.16500
C 	C 	0.24640 0.98870 0.37980 0.11700
C 	C 	0.24920 0.38110 0.93030 0.09700
C 	C 	0.12630 0.37830 0.92950 -0.15100
C 	C 	0.06460 0.44440 0.90230 0.07700
C 	C 	0.12960 0.51330 0.87960 -0.16600
C 	C 	0.24640 0.51130 0.87980 0.11600
C 	C 	0.24920 0.61890 0.06970 0.09700
C 	C 	0.12630 0.62170 0.07050 -0.15100
C 	C 	0.06460 0.55560 0.09770 0.07700
C 	C 	0.12960 0.48670 0.12040 -0.16600
C 	C 	0.24640 0.48870 0.12020 0.11600
C 	C 	0.75080 0.11890 0.43030 0.09700
C 	C 	0.87370 0.12170 0.42950 -0.15100
C 	C 	0.93540 0.05560 0.40230 0.07700
C 	C 	0.87040 0.98670 0.37960 -0.16500
C 	C 	0.75360 0.98870 0.37980 0.11700
C 	C 	0.75080 0.88110 0.56970 0.09700
C 	C 	0.87370 0.87830 0.57050 -0.15100
C 	C 	0.93540 0.94440 0.59770 0.07700
C 	C 	0.87040 0.01330 0.62040 -0.16500
C 	C 	0.75360 0.01130 0.62020 0.11700
C 	C 	0.50000 0.83390 0.80840 -0.08400
C 	C 	0.50000 0.90480 0.85570 -0.02500
C 	C 	0.50000 0.89250 0.93390 0.01200
C 	C 	0.50000 0.80600 0.96140 -0.01800
C 	C 	0.50000 0.73490 0.91420 -0.10800
C 	C 	0.50000 0.74790 0.83680 0.03000
C 	C 	0.50000 0.84900 0.72620 0.36700
C 	C 	0.50000 0.64310 0.94470 0.42400
C 	C 	0.50000 0.96720 0.98130 -0.01100
C 	C 	0.50000 0.16610 0.19160 -0.08400
C 	C 	0.50000 0.09520 0.14430 -0.02500
C 	C 	0.50000 0.10750 0.06610 0.01200
C 	C 	0.50000 0.19400 0.03860 -0.01800
C 	C 	0.50000 0.26510 0.08580 -0.10800
C 	C 	0.50000 0.25210 0.16320 0.03000
C 	C 	0.50000 0.15100 0.27380 0.36700
C 	C 	0.50000 0.35690 0.05530 0.42400
C 	C 	0.50000 0.03280 0.01870 -0.01100
C 	C 	0.50000 0.66610 0.30840 -0.08500
C 	C 	0.50000 0.59520 0.35570 -0.02500
C 	C 	0.50000 0.60750 0.43390 0.01200
C 	C 	0.50000 0.69400 0.46140 -0.01700
C 	C 	0.50000 0.76510 0.41420 -0.10900
C 	C 	0.50000 0.75210 0.33680 0.03000
C 	C 	0.50000 0.65100 0.22620 0.36700
C 	C 	0.50000 0.85690 0.44470 0.42400
C 	C 	0.50000 0.53280 0.48130 -0.01000
C 	C 	0.50000 0.33390 0.69160 -0.08500
C 	C 	0.50000 0.40480 0.64430 -0.02500
C 	C 	0.50000 0.39250 0.56610 0.01200
C 	C 	0.50000 0.30600 0.53860 -0.01700
C 	C 	0.50000 0.23490 0.58580 -0.10900
C 	C 	0.50000 0.24790 0.66320 0.03000
C 	C 	0.50000 0.34900 0.77380 0.36700
C 	C 	0.50000 0.14310 0.55530 0.42400
C 	C 	0.50000 0.46720 0.51870 -0.01000
N 	N 	0.69080 0.55270 0.09450 -0.24800
N 	N 	0.69080 0.44730 0.90550 -0.24800
N 	N 	0.30920 0.94730 0.59450 -0.24800
N 	N 	0.30920 0.05270 0.40550 -0.24800
N 	N 	0.30920 0.44730 0.90550 -0.24800
N 	N 	0.30920 0.55270 0.09450 -0.24800
N 	N 	0.69080 0.05270 0.40550 -0.24800
N 	N 	0.69080 0.94730 0.59450 -0.24800
O 	O 	0.50000 0.63590 0.01350 -0.49700
O 	O 	0.50000 0.58040 0.89980 -0.48400
O 	O 	0.50000 0.92820 0.70640 -0.44400
O 	O 	0.50000 0.78840 0.68420 -0.32100
O 	O 	0.50000 0.36410 0.98650 -0.49700
O 	O 	0.50000 0.41960 0.10020 -0.48400
O 	O 	0.50000 0.07180 0.29360 -0.44400
O 	O 	0.50000 0.21160 0.31580 -0.32100
O 	O 	0.50000 0.86410 0.51350 -0.49700
O 	O 	0.50000 0.91960 0.39980 -0.48400
O 	O 	0.50000 0.57180 0.20640 -0.44400
O 	O 	0.50000 0.71160 0.18420 -0.32100
O 	O 	0.50000 0.13590 0.48650 -0.49700
O 	O 	0.50000 0.08040 0.60020 -0.48400
O 	O 	0.50000 0.42820 0.79360 -0.44400
O 	O 	0.50000 0.28840 0.81580 -0.32100
