data_crystal

_cell_length_a 9.35310
_cell_length_b 9.80550
_cell_length_c 16.19410
_cell_angle_alpha 90.00000
_cell_angle_beta  90.00000
_cell_angle_gamma 90.00000

_symmetry_space_group_name_	'P 1'
_symmetry_space_group_name_H-M	'P 1'

loop_
_symmetry_equiv_pos_as_xyz
  x,y,z

loop_
_atom_site_label
_atom_site_type_symbol
_atom_site_fract_x
_atom_site_fract_y
_atom_site_fract_z
_atom_site_charge
Zn	Zn	0.94050 0.12002 0.58234 1.17900
Zn	Zn	0.44050 0.37998 0.41766 1.18500
Zn	Zn	0.05950 0.87998 0.08234 1.17700
Zn	Zn	0.55950 0.62002 0.91766 1.18500
Zn	Zn	0.05950 0.87998 0.41766 1.17900
Zn	Zn	0.55950 0.62002 0.58234 1.18500
Zn	Zn	0.94050 0.12002 0.91766 1.17700
Zn	Zn	0.44050 0.37998 0.08234 1.18500
H 	H 	0.67040 0.02130 0.66480 0.13200
H 	H 	0.58120 0.89560 0.66830 0.13600
H 	H 	0.82740 0.67080 0.46810 -0.05900
H 	H 	0.17040 0.47870 0.33520 0.14000
H 	H 	0.08120 0.60440 0.33170 0.13600
H 	H 	0.32740 0.82920 0.53190 -0.06200
H 	H 	0.32960 0.97870 0.16480 0.13000
H 	H 	0.41880 0.10440 0.16830 0.13600
H 	H 	0.17260 0.32920 0.96810 -0.05600
H 	H 	0.82960 0.52130 0.83520 0.14000
H 	H 	0.91880 0.39560 0.83170 0.13500
H 	H 	0.67260 0.17080 0.03190 -0.05400
H 	H 	0.32960 0.97870 0.33520 0.13200
H 	H 	0.41880 0.10440 0.33170 0.13600
H 	H 	0.17260 0.32920 0.53190 -0.05900
H 	H 	0.82960 0.52130 0.66480 0.14000
H 	H 	0.91880 0.39560 0.66830 0.13600
H 	H 	0.67260 0.17080 0.46810 -0.06200
H 	H 	0.67040 0.02130 0.83520 0.13000
H 	H 	0.58120 0.89560 0.83170 0.13600
H 	H 	0.82740 0.67080 0.03190 -0.05600
H 	H 	0.17040 0.47870 0.16480 0.14000
H 	H 	0.08120 0.60440 0.16830 0.13500
H 	H 	0.32740 0.82920 0.96810 -0.05400
C 	C 	0.74030 0.87900 0.59320 0.19300
C 	C 	0.81760 0.74580 0.50280 0.10900
C 	C 	0.24030 0.62100 0.40680 0.19200
C 	C 	0.31760 0.75420 0.49720 0.10800
C 	C 	0.25970 0.12100 0.09320 0.19300
C 	C 	0.18240 0.25420 0.00280 0.10500
C 	C 	0.75970 0.37900 0.90680 0.19100
C 	C 	0.68240 0.24580 0.99720 0.09700
C 	C 	0.25970 0.12100 0.40680 0.19300
C 	C 	0.18240 0.25420 0.49720 0.10900
C 	C 	0.75970 0.37900 0.59320 0.19200
C 	C 	0.68240 0.24580 0.50280 0.10800
C 	C 	0.74030 0.87900 0.90680 0.19300
C 	C 	0.81760 0.74580 0.99720 0.10500
C 	C 	0.24030 0.62100 0.09320 0.19100
C 	C 	0.31760 0.75420 0.00280 0.09700
C 	C 	0.97530 0.14040 0.75000 0.52600
C 	C 	0.47530 0.35960 0.25000 0.56800
C 	C 	0.02470 0.85960 0.25000 0.52600
C 	C 	0.52470 0.64040 0.75000 0.56800
N 	N 	0.85450 0.93910 0.55980 -0.28300
N 	N 	0.90240 0.84870 0.50110 -0.26400
N 	N 	0.71370 0.75720 0.55920 -0.31400
N 	N 	0.65340 0.93920 0.64880 -0.33300
N 	N 	0.35450 0.56090 0.44020 -0.28700
N 	N 	0.40240 0.65130 0.49890 -0.26800
N 	N 	0.21370 0.74280 0.44080 -0.31600
N 	N 	0.15340 0.56080 0.35120 -0.34100
N 	N 	0.14550 0.06090 0.05980 -0.28200
N 	N 	0.09760 0.15130 0.00110 -0.26400
N 	N 	0.28630 0.24280 0.05920 -0.31400
N 	N 	0.34660 0.06080 0.14880 -0.33100
N 	N 	0.64550 0.43910 0.94020 -0.28700
N 	N 	0.59760 0.34870 0.99890 -0.26600
N 	N 	0.78630 0.25720 0.94080 -0.31500
N 	N 	0.84660 0.43920 0.85120 -0.34000
N 	N 	0.14550 0.06090 0.44020 -0.28300
N 	N 	0.09760 0.15130 0.49890 -0.26400
N 	N 	0.28630 0.24280 0.44080 -0.31400
N 	N 	0.34660 0.06080 0.35120 -0.33300
N 	N 	0.64550 0.43910 0.55980 -0.28700
N 	N 	0.59760 0.34870 0.50110 -0.26800
N 	N 	0.78630 0.25720 0.55920 -0.31600
N 	N 	0.84660 0.43920 0.64880 -0.34100
N 	N 	0.85450 0.93910 0.94020 -0.28200
N 	N 	0.90240 0.84870 0.99890 -0.26400
N 	N 	0.71370 0.75720 0.94080 -0.31400
N 	N 	0.65340 0.93920 0.85120 -0.33100
N 	N 	0.35450 0.56090 0.05980 -0.28700
N 	N 	0.40240 0.65130 0.00110 -0.26600
N 	N 	0.21370 0.74280 0.05920 -0.31500
N 	N 	0.15340 0.56080 0.14880 -0.34000
O 	O 	0.04180 0.16220 0.68200 -0.51900
O 	O 	0.54180 0.33780 0.31800 -0.54200
O 	O 	0.95820 0.83780 0.18200 -0.51800
O 	O 	0.45820 0.66220 0.81800 -0.54200
O 	O 	0.95820 0.83780 0.31800 -0.51900
O 	O 	0.45820 0.66220 0.68200 -0.54200
O 	O 	0.04180 0.16220 0.81800 -0.51800
O 	O 	0.54180 0.33780 0.18200 -0.54200
O 	O 	0.84980 0.10990 0.75000 -0.46500
O 	O 	0.34980 0.39010 0.25000 -0.47100
O 	O 	0.15020 0.89010 0.25000 -0.46500
O 	O 	0.65020 0.60990 0.75000 -0.47100
