data_crystal

_cell_length_a 11.02100
_cell_length_b 18.56100
_cell_length_c 20.57100
_cell_angle_alpha 90.00000
_cell_angle_beta  90.00000
_cell_angle_gamma 105.82200

_symmetry_space_group_name_	'P 1'
_symmetry_space_group_name_H-M	'P 1'

loop_
_symmetry_equiv_pos_as_xyz
  x,y,z

loop_
_atom_site_label
_atom_site_type_symbol
_atom_site_fract_x
_atom_site_fract_y
_atom_site_fract_z
_atom_site_charge
Zn	Zn	0.95460 0.57798 0.89601 1.22800
Zn	Zn	0.04949 0.16619 0.35227 1.21500
Zn	Zn	0.04540 0.92202 0.39601 1.22800
Zn	Zn	0.95051 0.33381 0.85227 1.21500
Zn	Zn	0.04540 0.42202 0.10399 1.22700
Zn	Zn	0.95051 0.83381 0.64773 1.21400
Zn	Zn	0.95460 0.07798 0.60399 1.22700
Zn	Zn	0.04949 0.66619 0.14773 1.21400
H 	H 	0.92880 0.47190 0.77140 -0.02300
H 	H 	0.08620 0.68540 0.78640 0.05200
H 	H 	0.09240 0.65250 0.67140 0.08800
H 	H 	0.00750 0.53640 0.60430 0.11700
H 	H 	0.90060 0.47370 0.63720 0.07400
H 	H 	0.04750 0.41090 0.67030 0.06100
H 	H 	0.15840 0.47550 0.64190 0.11600
H 	H 	0.96200 0.38810 0.56230 0.12600
H 	H 	0.08200 0.44750 0.53610 0.14500
H 	H 	0.07430 0.31000 0.59090 0.06900
H 	H 	0.20220 0.37170 0.58030 0.10600
H 	H 	0.01010 0.22090 0.49390 -0.00100
H 	H 	0.21220 0.33710 0.35320 0.04400
H 	H 	0.23500 0.41930 0.44840 0.11700
H 	H 	0.84390 0.04600 0.42260 -0.00100
H 	H 	0.78590 0.17570 0.28210 0.03300
H 	H 	0.58110 0.09790 0.31620 0.05400
H 	H 	0.61300 0.95300 0.42860 0.06200
H 	H 	0.50690 0.97930 0.39270 0.06800
H 	H 	0.52080 0.07290 0.47210 0.08000
H 	H 	0.62620 0.04590 0.50820 0.08300
H 	H 	0.63610 0.36120 0.85620 -0.02100
H 	H 	0.46750 0.26060 0.87840 0.21300
H 	H 	0.59200 0.25330 0.05900 0.17300
H 	H 	0.36900 0.09460 0.10370 0.21800
H 	H 	0.27540 0.11330 0.19940 -0.00400
H 	H 	0.31530 0.28560 0.03520 0.15700
H 	H 	0.07120 0.02810 0.27140 -0.01700
H 	H 	0.91380 0.81460 0.28640 0.05200
H 	H 	0.90760 0.84750 0.17140 0.09000
H 	H 	0.99250 0.96360 0.10430 0.13000
H 	H 	0.09940 0.02630 0.13720 0.08500
H 	H 	0.95250 0.08910 0.17030 0.05300
H 	H 	0.84160 0.02450 0.14190 0.10900
H 	H 	0.03800 0.11190 0.06230 0.13100
H 	H 	0.91800 0.05250 0.03610 0.14900
H 	H 	0.92570 0.19000 0.09090 0.06600
H 	H 	0.79780 0.12830 0.08030 0.10200
H 	H 	0.98990 0.27910 0.99390 -0.00400
H 	H 	0.78780 0.16290 0.85320 0.04400
H 	H 	0.76500 0.08070 0.94840 0.11600
H 	H 	0.15610 0.45400 0.92260 0.00100
H 	H 	0.21410 0.32430 0.78210 0.03300
H 	H 	0.41890 0.40210 0.81620 0.05400
H 	H 	0.38700 0.54700 0.92860 0.06200
H 	H 	0.49310 0.52070 0.89270 0.06800
H 	H 	0.47920 0.42710 0.97210 0.08000
H 	H 	0.37380 0.45410 0.00820 0.08200
H 	H 	0.36390 0.13880 0.35620 -0.02100
H 	H 	0.53250 0.23940 0.37840 0.21200
H 	H 	0.40800 0.24670 0.55900 0.17300
H 	H 	0.63100 0.40540 0.60370 0.21800
H 	H 	0.72460 0.38670 0.69940 -0.00400
H 	H 	0.68470 0.21440 0.53520 0.15800
H 	H 	0.07120 0.52810 0.22860 -0.02300
H 	H 	0.91380 0.31460 0.21360 0.05200
H 	H 	0.90760 0.34750 0.32860 0.08800
H 	H 	0.99250 0.46360 0.39570 0.11700
H 	H 	0.09940 0.52630 0.36280 0.07400
H 	H 	0.95250 0.58910 0.32970 0.06100
H 	H 	0.84160 0.52450 0.35810 0.11600
H 	H 	0.03800 0.61190 0.43770 0.12600
H 	H 	0.91800 0.55250 0.46390 0.14500
H 	H 	0.92570 0.69000 0.40910 0.06900
H 	H 	0.79780 0.62830 0.41970 0.10600
H 	H 	0.98990 0.77910 0.50610 -0.00100
H 	H 	0.78780 0.66290 0.64680 0.04400
H 	H 	0.76500 0.58070 0.55160 0.11700
H 	H 	0.15610 0.95400 0.57740 -0.00100
H 	H 	0.21410 0.82430 0.71790 0.03300
H 	H 	0.41890 0.90210 0.68380 0.05400
H 	H 	0.38700 0.04700 0.57140 0.06200
H 	H 	0.49310 0.02070 0.60730 0.06800
H 	H 	0.47920 0.92710 0.52790 0.08000
H 	H 	0.37380 0.95410 0.49180 0.08300
H 	H 	0.36390 0.63880 0.14380 -0.02100
H 	H 	0.53250 0.73940 0.12160 0.21300
H 	H 	0.40800 0.74670 0.94100 0.17300
H 	H 	0.63100 0.90540 0.89630 0.21800
H 	H 	0.72460 0.88670 0.80060 -0.00400
H 	H 	0.68470 0.71440 0.96480 0.15700
H 	H 	0.92880 0.97190 0.72860 -0.01700
H 	H 	0.08620 0.18540 0.71360 0.05200
H 	H 	0.09240 0.15250 0.82860 0.09000
H 	H 	0.00750 0.03640 0.89570 0.13000
H 	H 	0.90060 0.97370 0.86280 0.08500
H 	H 	0.04750 0.91090 0.82970 0.05300
H 	H 	0.15840 0.97550 0.85810 0.10900
H 	H 	0.96200 0.88810 0.93770 0.13100
H 	H 	0.08200 0.94750 0.96390 0.14900
H 	H 	0.07430 0.81000 0.90910 0.06600
H 	H 	0.20220 0.87170 0.91970 0.10200
H 	H 	0.01010 0.72090 0.00610 -0.00400
H 	H 	0.21220 0.83710 0.14680 0.04400
H 	H 	0.23500 0.91930 0.05160 0.11600
H 	H 	0.84390 0.54600 0.07740 0.00100
H 	H 	0.78590 0.67570 0.21790 0.03300
H 	H 	0.58110 0.59790 0.18380 0.05400
H 	H 	0.61300 0.45300 0.07140 0.06200
H 	H 	0.50690 0.47930 0.10730 0.06800
H 	H 	0.52080 0.57290 0.02790 0.08000
H 	H 	0.62620 0.54590 0.99180 0.08200
H 	H 	0.63610 0.86120 0.64380 -0.02100
H 	H 	0.46750 0.76060 0.62160 0.21200
H 	H 	0.59200 0.75330 0.44100 0.17300
H 	H 	0.36900 0.59460 0.39630 0.21800
H 	H 	0.27540 0.61330 0.30060 -0.00400
H 	H 	0.31530 0.78560 0.46480 0.15800
C 	C 	0.97050 0.52130 0.76140 0.13700
C 	C 	0.05610 0.63780 0.76850 0.00900
C 	C 	0.05940 0.61980 0.70520 0.01600
C 	C 	0.98840 0.50210 0.64070 -0.07200
C 	C 	0.07040 0.44830 0.63620 -0.06800
C 	C 	0.05140 0.41010 0.56950 -0.15300
C 	C 	0.11670 0.35260 0.56420 -0.02300
C 	C 	0.06350 0.25970 0.47050 0.13300
C 	C 	0.17400 0.32410 0.39350 0.03500
C 	C 	0.18810 0.36940 0.44610 0.02300
C 	C 	0.80450 0.06840 0.39170 0.09600
C 	C 	0.77180 0.13960 0.31460 0.03600
C 	C 	0.65890 0.09690 0.33320 0.00900
C 	C 	0.58250 0.99620 0.41890 -0.04700
C 	C 	0.55110 0.02960 0.48160 -0.10900
C 	C 	0.82610 0.43330 0.92570 0.43000
C 	C 	0.71960 0.36790 0.94450 -0.22100
C 	C 	0.62820 0.33940 0.89720 0.18300
C 	C 	0.52660 0.27940 0.91070 -0.31300
C 	C 	0.51080 0.24680 0.97140 0.36800
C 	C 	0.60160 0.27460 0.01780 -0.26800
C 	C 	0.70760 0.33390 0.00480 0.10300
C 	C 	0.80920 0.35400 0.05500 0.27400
C 	C 	0.40130 0.17760 0.98970 -0.51700
C 	C 	0.28990 0.16420 0.94160 0.98700
C 	C 	0.45740 0.10910 0.98700 1.00100
C 	C 	0.34850 0.18750 0.05760 0.35300
C 	C 	0.33760 0.13600 0.10840 -0.30000
C 	C 	0.28020 0.14710 0.16540 0.17400
C 	C 	0.22930 0.20700 0.17400 -0.17100
C 	C 	0.15090 0.20860 0.23480 0.43000
C 	C 	0.24240 0.26000 0.12460 0.08900
C 	C 	0.19950 0.33000 0.13010 0.29700
C 	C 	0.30380 0.24950 0.06770 -0.24500
C 	C 	0.02950 0.97870 0.26140 0.12600
C 	C 	0.94390 0.86220 0.26850 0.01300
C 	C 	0.94060 0.88020 0.20520 0.01400
C 	C 	0.01160 0.99790 0.14070 -0.10600
C 	C 	0.92960 0.05170 0.13620 -0.04400
C 	C 	0.94860 0.08990 0.06950 -0.17000
C 	C 	0.88330 0.14740 0.06420 -0.01100
C 	C 	0.93650 0.24030 0.97050 0.13200
C 	C 	0.82600 0.17590 0.89350 0.03400
C 	C 	0.81190 0.13060 0.94610 0.02200
C 	C 	0.19550 0.43160 0.89170 0.09700
C 	C 	0.22820 0.36040 0.81460 0.03700
C 	C 	0.34110 0.40310 0.83320 0.00900
C 	C 	0.41750 0.50380 0.91890 -0.04900
C 	C 	0.44890 0.47040 0.98160 -0.10700
C 	C 	0.17390 0.06670 0.42570 0.42900
C 	C 	0.28040 0.13210 0.44450 -0.21800
C 	C 	0.37180 0.16060 0.39720 0.18200
C 	C 	0.47340 0.22060 0.41070 -0.31200
C 	C 	0.48920 0.25320 0.47140 0.36800
C 	C 	0.39840 0.22540 0.51780 -0.26700
C 	C 	0.29240 0.16610 0.50480 0.10000
C 	C 	0.19080 0.14600 0.55500 0.27500
C 	C 	0.59870 0.32240 0.48970 -0.51800
C 	C 	0.71010 0.33580 0.44160 0.98700
C 	C 	0.54260 0.39090 0.48700 1.00200
C 	C 	0.65150 0.31250 0.55760 0.35500
C 	C 	0.66240 0.36400 0.60840 -0.30100
C 	C 	0.71980 0.35290 0.66540 0.17500
C 	C 	0.77070 0.29300 0.67400 -0.17100
C 	C 	0.84910 0.29140 0.73480 0.43100
C 	C 	0.75760 0.24000 0.62460 0.09000
C 	C 	0.80050 0.17000 0.63010 0.29700
C 	C 	0.69620 0.25050 0.56770 -0.24600
C 	C 	0.02950 0.47870 0.23860 0.13700
C 	C 	0.94390 0.36220 0.23150 0.00900
C 	C 	0.94060 0.38020 0.29480 0.01600
C 	C 	0.01160 0.49790 0.35930 -0.07200
C 	C 	0.92960 0.55170 0.36380 -0.06800
C 	C 	0.94860 0.58990 0.43050 -0.15300
C 	C 	0.88330 0.64740 0.43580 -0.02300
C 	C 	0.93650 0.74030 0.52950 0.13300
C 	C 	0.82600 0.67590 0.60650 0.03500
C 	C 	0.81190 0.63060 0.55390 0.02300
C 	C 	0.19550 0.93160 0.60830 0.09600
C 	C 	0.22820 0.86040 0.68540 0.03600
C 	C 	0.34110 0.90310 0.66680 0.00900
C 	C 	0.41750 0.00380 0.58110 -0.04700
C 	C 	0.44890 0.97040 0.51840 -0.10900
C 	C 	0.17390 0.56670 0.07430 0.43000
C 	C 	0.28040 0.63210 0.05550 -0.22100
C 	C 	0.37180 0.66060 0.10280 0.18300
C 	C 	0.47340 0.72060 0.08930 -0.31300
C 	C 	0.48920 0.75320 0.02860 0.36800
C 	C 	0.39840 0.72540 0.98220 -0.26800
C 	C 	0.29240 0.66610 0.99520 0.10300
C 	C 	0.19080 0.64600 0.94500 0.27400
C 	C 	0.59870 0.82240 0.01030 -0.51700
C 	C 	0.71010 0.83580 0.05840 0.98700
C 	C 	0.54260 0.89090 0.01300 1.00100
C 	C 	0.65150 0.81250 0.94240 0.35300
C 	C 	0.66240 0.86400 0.89160 -0.30000
C 	C 	0.71980 0.85290 0.83460 0.17400
C 	C 	0.77070 0.79300 0.82600 -0.17100
C 	C 	0.84910 0.79140 0.76520 0.43000
C 	C 	0.75760 0.74000 0.87540 0.08900
C 	C 	0.80050 0.67000 0.86990 0.29700
C 	C 	0.69620 0.75050 0.93230 -0.24500
C 	C 	0.97050 0.02130 0.73860 0.12600
C 	C 	0.05610 0.13780 0.73150 0.01300
C 	C 	0.05940 0.11980 0.79480 0.01400
C 	C 	0.98840 0.00210 0.85930 -0.10600
C 	C 	0.07040 0.94830 0.86380 -0.04400
C 	C 	0.05140 0.91010 0.93050 -0.17000
C 	C 	0.11670 0.85260 0.93580 -0.01100
C 	C 	0.06350 0.75970 0.02950 0.13200
C 	C 	0.17400 0.82410 0.10650 0.03400
C 	C 	0.18810 0.86940 0.05390 0.02200
C 	C 	0.80450 0.56840 0.10830 0.09700
C 	C 	0.77180 0.63960 0.18540 0.03700
C 	C 	0.65890 0.59690 0.16680 0.00900
C 	C 	0.58250 0.49620 0.08110 -0.04900
C 	C 	0.55110 0.52960 0.01840 -0.10700
C 	C 	0.82610 0.93330 0.57430 0.42900
C 	C 	0.71960 0.86790 0.55550 -0.21800
C 	C 	0.62820 0.83940 0.60280 0.18200
C 	C 	0.52660 0.77940 0.58930 -0.31200
C 	C 	0.51080 0.74680 0.52860 0.36800
C 	C 	0.60160 0.77460 0.48220 -0.26700
C 	C 	0.70760 0.83390 0.49520 0.10000
C 	C 	0.80920 0.85400 0.44500 0.27500
C 	C 	0.40130 0.67760 0.51030 -0.51800
C 	C 	0.28990 0.66420 0.55840 0.98700
C 	C 	0.45740 0.60910 0.51300 1.00200
C 	C 	0.34850 0.68750 0.44240 0.35500
C 	C 	0.33760 0.63600 0.39160 -0.30100
C 	C 	0.28020 0.64710 0.33460 0.17500
C 	C 	0.22930 0.70700 0.32600 -0.17100
C 	C 	0.15090 0.70860 0.26520 0.43100
C 	C 	0.24240 0.76000 0.37540 0.09000
C 	C 	0.19950 0.83000 0.36990 0.29700
C 	C 	0.30380 0.74950 0.43230 -0.24600
N 	N 	0.99840 0.57100 0.80300 -0.26700
N 	N 	0.00530 0.54450 0.69980 -0.10700
N 	N 	0.12010 0.32770 0.49490 -0.10000
N 	N 	0.09380 0.25530 0.40940 -0.26800
N 	N 	0.86350 0.12170 0.35090 -0.26000
N 	N 	0.67930 0.05150 0.38190 -0.10900
N 	N 	0.00160 0.92900 0.30300 -0.26600
N 	N 	0.99470 0.95550 0.19980 -0.09700
N 	N 	0.87990 0.17230 0.99490 -0.10300
N 	N 	0.90620 0.24470 0.90940 -0.26900
N 	N 	0.13650 0.37830 0.85090 -0.25800
N 	N 	0.32070 0.44850 0.88190 -0.10800
N 	N 	0.00160 0.42900 0.19700 -0.26700
N 	N 	0.99470 0.45550 0.30020 -0.10700
N 	N 	0.87990 0.67230 0.50510 -0.10000
N 	N 	0.90620 0.74470 0.59060 -0.26800
N 	N 	0.13650 0.87830 0.64910 -0.26000
N 	N 	0.32070 0.94850 0.61810 -0.10900
N 	N 	0.99840 0.07100 0.69700 -0.26600
N 	N 	0.00530 0.04450 0.80020 -0.09700
N 	N 	0.12010 0.82770 0.00510 -0.10300
N 	N 	0.09380 0.75530 0.09060 -0.26900
N 	N 	0.86350 0.62170 0.14910 -0.25800
N 	N 	0.67930 0.55150 0.11810 -0.10800
O 	O 	0.91950 0.42380 0.89568 -0.52000
O 	O 	0.81560 0.49780 0.93693 -0.44900
O 	O 	0.90380 0.40690 0.04262 -0.42600
O 	O 	0.80270 0.31210 0.10240 -0.27200
O 	O 	0.16130 0.16700 0.27930 -0.48900
O 	O 	0.06850 0.23890 0.23510 -0.36200
O 	O 	0.25680 0.38020 0.16430 -0.27800
O 	O 	0.10680 0.33190 0.09430 -0.41400
O 	O 	0.08050 0.07620 0.39568 -0.51800
O 	O 	0.18440 0.00220 0.43693 -0.44700
O 	O 	0.09620 0.09310 0.54262 -0.42700
O 	O 	0.19730 0.18790 0.60240 -0.27200
O 	O 	0.83870 0.33300 0.77930 -0.48900
O 	O 	0.93150 0.26110 0.73510 -0.36300
O 	O 	0.74320 0.11980 0.66430 -0.27900
O 	O 	0.89320 0.16810 0.59430 -0.41500
O 	O 	0.08050 0.57620 0.10432 -0.52000
O 	O 	0.18440 0.50220 0.06307 -0.44900
O 	O 	0.09620 0.59310 0.95738 -0.42600
O 	O 	0.19730 0.68790 0.89760 -0.27200
O 	O 	0.83870 0.83300 0.72070 -0.48900
O 	O 	0.93150 0.76110 0.76490 -0.36200
O 	O 	0.74320 0.61980 0.83570 -0.27800
O 	O 	0.89320 0.66810 0.90570 -0.41400
O 	O 	0.91950 0.92380 0.60432 -0.51800
O 	O 	0.81560 0.99780 0.56307 -0.44700
O 	O 	0.90380 0.90690 0.45738 -0.42700
O 	O 	0.80270 0.81210 0.39760 -0.27200
O 	O 	0.16130 0.66700 0.22070 -0.48900
O 	O 	0.06850 0.73890 0.26490 -0.36300
O 	O 	0.25680 0.88020 0.33570 -0.27900
O 	O 	0.10680 0.83190 0.40570 -0.41500
F 	F 	0.25270 0.22490 0.93114 -0.55400
F 	F 	0.18990 0.11160 0.96480 -0.51000
F 	F 	0.31580 0.13890 0.88339 -0.48700
F 	F 	0.51100 0.10500 0.92880 -0.46600
F 	F 	0.36760 0.04410 0.99320 -0.46400
F 	F 	0.54190 0.11130 0.03130 -0.52300
F 	F 	0.74730 0.27510 0.43114 -0.55500
F 	F 	0.81010 0.38840 0.46480 -0.51100
F 	F 	0.68420 0.36110 0.38339 -0.48800
F 	F 	0.48900 0.39500 0.42880 -0.46600
F 	F 	0.63240 0.45590 0.49320 -0.46400
F 	F 	0.45810 0.38870 0.53130 -0.52300
F 	F 	0.74730 0.77510 0.06886 -0.55400
F 	F 	0.81010 0.88840 0.03520 -0.51000
F 	F 	0.68420 0.86110 0.11661 -0.48700
F 	F 	0.48900 0.89500 0.07120 -0.46600
F 	F 	0.63240 0.95590 0.00680 -0.46400
F 	F 	0.45810 0.88870 0.96870 -0.52300
F 	F 	0.25270 0.72490 0.56886 -0.55500
F 	F 	0.18990 0.61160 0.53520 -0.51100
F 	F 	0.31580 0.63890 0.61661 -0.48800
F 	F 	0.51100 0.60500 0.57120 -0.46600
F 	F 	0.36760 0.54410 0.50680 -0.46400
F 	F 	0.54190 0.61130 0.46870 -0.52300
