data_crystal

_cell_length_a 12.83770
_cell_length_b 12.83770
_cell_length_c 19.04570
_cell_angle_alpha 83.77660
_cell_angle_beta  83.77660
_cell_angle_gamma 68.74460

_symmetry_space_group_name_	'P 1'
_symmetry_space_group_name_H-M	'P 1'

loop_
_symmetry_equiv_pos_as_xyz
  x,y,z

loop_
_atom_site_label
_atom_site_type_symbol
_atom_site_fract_x
_atom_site_fract_y
_atom_site_fract_z
_atom_site_charge
Zn	Zn	0.72382 0.93570 0.77443 1.20200
Zn	Zn	0.10791 0.71295 0.56022 1.16500
Zn	Zn	0.06430 0.27618 0.72557 1.20200
Zn	Zn	0.28705 0.89209 0.93978 1.16500
Zn	Zn	0.27618 0.06430 0.22557 1.20200
Zn	Zn	0.89209 0.28705 0.43978 1.16500
Zn	Zn	0.93570 0.72382 0.27443 1.20200
Zn	Zn	0.71295 0.10791 0.06022 1.16500
Zn	Zn	0.89308 0.10692 0.75000 1.18900
Zn	Zn	0.10692 0.89308 0.25000 1.18900
H 	H 	0.64830 0.32030 0.62300 0.03100
H 	H 	0.51300 0.46720 0.56700 0.06600
H 	H 	0.41340 0.19900 0.71080 0.03800
H 	H 	0.85540 0.14780 0.91740 -0.04700
H 	H 	0.67010 0.96410 0.94530 -0.03800
H 	H 	0.07780 0.92740 0.64420 -0.05600
H 	H 	0.88050 0.75650 0.66240 -0.04100
H 	H 	0.67970 0.35170 0.87700 0.03200
H 	H 	0.53280 0.48700 0.93300 0.06600
H 	H 	0.80100 0.58660 0.78920 0.03800
H 	H 	0.85220 0.14460 0.58260 -0.04700
H 	H 	0.03590 0.32990 0.55470 -0.03500
H 	H 	0.07260 0.92220 0.85580 -0.05600
H 	H 	0.24350 0.11950 0.83760 -0.04200
H 	H 	0.35170 0.67970 0.37700 0.03100
H 	H 	0.48700 0.53280 0.43300 0.06600
H 	H 	0.58660 0.80100 0.28920 0.03800
H 	H 	0.14460 0.85220 0.08260 -0.04700
H 	H 	0.32990 0.03590 0.05470 -0.03800
H 	H 	0.92220 0.07260 0.35580 -0.05600
H 	H 	0.11950 0.24350 0.33760 -0.04100
H 	H 	0.32030 0.64830 0.12300 0.03200
H 	H 	0.46720 0.51300 0.06700 0.06600
H 	H 	0.19900 0.41340 0.21080 0.03800
H 	H 	0.14780 0.85540 0.41740 -0.04700
H 	H 	0.96410 0.67010 0.44530 -0.03500
H 	H 	0.92740 0.07780 0.14420 -0.05600
H 	H 	0.75650 0.88050 0.16240 -0.04200
C 	C 	0.63418 0.14512 0.70530 0.38200
C 	C 	0.54502 0.24306 0.67160 -0.11600
C 	C 	0.57388 0.32508 0.62901 0.02200
C 	C 	0.49275 0.41315 0.59572 -0.06500
C 	C 	0.38072 0.42206 0.60456 -0.02000
C 	C 	0.35044 0.34246 0.64902 -0.08100
C 	C 	0.43329 0.25287 0.68176 0.03700
C 	C 	0.29551 0.52093 0.56758 0.32700
C 	C 	0.23147 0.34641 0.66002 0.34300
C 	C 	0.81778 0.10102 0.90937 0.10600
C 	C 	0.71730 0.00116 0.92468 0.10600
C 	C 	0.01816 0.90316 0.65815 0.09600
C 	C 	0.91113 0.81029 0.66788 0.10300
C 	C 	0.85488 0.36582 0.79470 0.38200
C 	C 	0.75694 0.45498 0.82840 -0.11600
C 	C 	0.67492 0.42612 0.87099 0.02200
C 	C 	0.58685 0.50725 0.90428 -0.06500
C 	C 	0.57794 0.61928 0.89544 -0.02000
C 	C 	0.65754 0.64956 0.85098 -0.08100
C 	C 	0.74713 0.56671 0.81824 0.03700
C 	C 	0.47907 0.70449 0.93242 0.32700
C 	C 	0.65359 0.76853 0.83998 0.34300
C 	C 	0.89898 0.18222 0.59063 0.10600
C 	C 	0.99884 0.28270 0.57532 0.10200
C 	C 	0.09684 0.98184 0.84185 0.09500
C 	C 	0.18971 0.08887 0.83212 0.10400
C 	C 	0.36582 0.85488 0.29470 0.38200
C 	C 	0.45498 0.75694 0.32840 -0.11600
C 	C 	0.42612 0.67492 0.37099 0.02200
C 	C 	0.50725 0.58685 0.40428 -0.06500
C 	C 	0.61928 0.57794 0.39544 -0.02000
C 	C 	0.64956 0.65754 0.35098 -0.08100
C 	C 	0.56671 0.74713 0.31824 0.03700
C 	C 	0.70449 0.47907 0.43242 0.32700
C 	C 	0.76853 0.65359 0.33998 0.34300
C 	C 	0.18222 0.89898 0.09063 0.10600
C 	C 	0.28270 0.99884 0.07532 0.10600
C 	C 	0.98184 0.09684 0.34185 0.09600
C 	C 	0.08887 0.18971 0.33212 0.10300
C 	C 	0.14512 0.63418 0.20530 0.38200
C 	C 	0.24306 0.54502 0.17160 -0.11600
C 	C 	0.32508 0.57388 0.12901 0.02200
C 	C 	0.41315 0.49275 0.09572 -0.06500
C 	C 	0.42206 0.38072 0.10456 -0.02000
C 	C 	0.34246 0.35044 0.14902 -0.08100
C 	C 	0.25287 0.43329 0.18176 0.03700
C 	C 	0.52093 0.29551 0.06758 0.32700
C 	C 	0.34641 0.23147 0.16002 0.34300
C 	C 	0.10102 0.81778 0.40937 0.10600
C 	C 	0.00116 0.71730 0.42468 0.10200
C 	C 	0.90316 0.01816 0.15815 0.09500
C 	C 	0.81029 0.91113 0.16788 0.10400
N 	N 	0.82058 0.06352 0.84724 -0.23600
N 	N 	0.75523 0.99787 0.85775 -0.25500
N 	N 	0.75465 0.06449 0.95999 -0.30800
N 	N 	0.93579 0.95213 0.70470 -0.23900
N 	N 	0.86586 0.89172 0.71085 -0.25100
N 	N 	0.00676 0.81402 0.63287 -0.30700
N 	N 	0.93648 0.17942 0.65276 -0.23700
N 	N 	0.00213 0.24477 0.64225 -0.25400
N 	N 	0.93551 0.24535 0.54001 -0.30800
N 	N 	0.04787 0.06421 0.79530 -0.23800
N 	N 	0.10828 0.13414 0.78915 -0.25100
N 	N 	0.18598 0.99324 0.86713 -0.30800
N 	N 	0.17942 0.93648 0.15276 -0.23600
N 	N 	0.24477 0.00213 0.14225 -0.25500
N 	N 	0.24535 0.93551 0.04001 -0.30800
N 	N 	0.06421 0.04787 0.29530 -0.23900
N 	N 	0.13414 0.10828 0.28915 -0.25100
N 	N 	0.99324 0.18598 0.36713 -0.30700
N 	N 	0.06352 0.82058 0.34724 -0.23700
N 	N 	0.99787 0.75523 0.35775 -0.25400
N 	N 	0.06449 0.75465 0.45999 -0.30800
N 	N 	0.95213 0.93579 0.20470 -0.23800
N 	N 	0.89172 0.86586 0.21085 -0.25100
N 	N 	0.81402 0.00676 0.13287 -0.30800
O 	O 	0.72740 0.15154 0.70886 -0.46800
O 	O 	0.60699 0.05997 0.72772 -0.48200
O 	O 	0.23286 0.59614 0.60641 -0.47600
O 	O 	0.29329 0.52513 0.50279 -0.32100
O 	O 	0.16561 0.39267 0.61420 -0.33600
O 	O 	0.20721 0.29665 0.71722 -0.47500
O 	O 	0.84846 0.27260 0.79114 -0.46800
O 	O 	0.94003 0.39301 0.77228 -0.48200
O 	O 	0.40386 0.76714 0.89359 -0.47600
O 	O 	0.47487 0.70671 0.99721 -0.32100
O 	O 	0.60733 0.83439 0.88580 -0.33600
O 	O 	0.70335 0.79279 0.78278 -0.47500
O 	O 	0.27260 0.84846 0.29114 -0.46800
O 	O 	0.39301 0.94003 0.27228 -0.48200
O 	O 	0.76714 0.40386 0.39359 -0.47600
O 	O 	0.70671 0.47487 0.49721 -0.32100
O 	O 	0.83439 0.60733 0.38580 -0.33600
O 	O 	0.79279 0.70335 0.28278 -0.47500
O 	O 	0.15154 0.72740 0.20886 -0.46800
O 	O 	0.05997 0.60699 0.22772 -0.48200
O 	O 	0.59614 0.23286 0.10641 -0.47600
O 	O 	0.52513 0.29329 0.00279 -0.32100
O 	O 	0.39267 0.16561 0.11420 -0.33600
O 	O 	0.29665 0.20721 0.21722 -0.47500
