data_crystal

_cell_length_a 9.00560
_cell_length_b 10.72630
_cell_length_c 12.98990
_cell_angle_alpha 104.04700
_cell_angle_beta  90.00000
_cell_angle_gamma 90.00000

_symmetry_space_group_name_	'P 1'
_symmetry_space_group_name_H-M	'P 1'

loop_
_symmetry_equiv_pos_as_xyz
  x,y,z

loop_
_atom_site_label
_atom_site_type_symbol
_atom_site_fract_x
_atom_site_fract_y
_atom_site_fract_z
_atom_site_charge
Zn	Zn	0.61926 0.50000 -0.00000 1.19700
Zn	Zn	0.93446 0.00000 0.50000 1.17100
H 	H 	0.77580 0.17950 0.38680 -0.05000
H 	H 	0.60280 0.17000 0.25630 0.17200
H 	H 	0.61950 0.78750 0.20130 0.17400
H 	H 	0.77450 0.81010 0.34070 -0.07100
H 	H 	0.51170 0.11530 0.07730 0.01300
H 	H 	0.37730 0.10810 0.15340 0.02100
H 	H 	0.30260 0.82160 0.02970 0.01300
H 	H 	0.20030 0.92910 0.09830 0.03900
H 	H 	0.90030 0.80880 0.84390 0.20600
H 	H 	0.70770 0.68080 0.86600 -0.06400
H 	H 	0.88790 0.61900 0.11830 -0.03300
H 	H 	0.08900 0.74240 0.10210 0.15300
H 	H 	0.31150 0.29570 0.75570 0.05300
H 	H 	0.99240 0.40700 0.58310 -0.03900
H 	H 	0.23770 0.66760 0.78260 0.09900
H 	H 	0.77580 0.82050 0.61320 -0.05900
H 	H 	0.60280 0.83000 0.74370 0.14300
H 	H 	0.61950 0.21250 0.79870 0.16300
H 	H 	0.77450 0.18990 0.65930 -0.06100
H 	H 	0.51170 0.88470 0.92270 0.00300
H 	H 	0.37730 0.89190 0.84660 -0.00400
H 	H 	0.30260 0.17840 0.97030 0.01400
H 	H 	0.20030 0.07090 0.90170 -0.00200
H 	H 	0.90030 0.19120 0.15610 0.17600
H 	H 	0.70770 0.31920 0.13400 -0.05900
H 	H 	0.88790 0.38100 0.88170 -0.04200
H 	H 	0.08900 0.25760 0.89790 0.12400
H 	H 	0.31150 0.70430 0.24430 0.05200
H 	H 	0.99240 0.59300 0.41690 -0.03600
H 	H 	0.23770 0.33240 0.21740 0.09100
C 	C 	0.74220 0.09930 0.34940 0.16400
C 	C 	0.64080 0.09490 0.26980 -0.39700
C 	C 	0.59630 0.97470 0.20960 0.41700
C 	C 	0.64870 0.86920 0.23840 -0.37200
C 	C 	0.74320 0.88360 0.32090 0.21700
C 	C 	0.43760 0.05890 0.09580 0.08600
C 	C 	0.24330 0.89680 0.02850 0.12100
C 	C 	0.01830 0.78840 0.96970 0.50200
C 	C 	0.90110 0.76960 0.90040 -0.47900
C 	C 	0.78570 0.69320 0.91430 0.26000
C 	C 	0.89140 0.65690 0.06110 0.04800
C 	C 	0.01250 0.73130 0.05250 -0.29100
C 	C 	0.42170 0.52350 0.85670 0.32600
C 	C 	0.29570 0.48760 0.77980 -0.05200
C 	C 	0.25910 0.36100 0.73610 0.02100
C 	C 	0.14540 0.33080 0.66370 -0.10400
C 	C 	0.06830 0.42750 0.63290 0.09800
C 	C 	0.21590 0.58220 0.75090 -0.07500
C 	C 	0.10410 0.19140 0.61680 0.37300
C 	C 	0.10470 0.55490 0.67650 0.11000
C 	C 	0.74220 0.90070 0.65060 0.22700
C 	C 	0.64080 0.90510 0.73020 -0.27600
C 	C 	0.59630 0.02530 0.79040 0.29900
C 	C 	0.64870 0.13080 0.76160 -0.31900
C 	C 	0.74320 0.11640 0.67910 0.17100
C 	C 	0.43760 0.94110 0.90420 0.26000
C 	C 	0.24330 0.10320 0.97150 0.21900
C 	C 	0.01830 0.21160 0.03030 0.38200
C 	C 	0.90110 0.23040 0.09960 -0.45100
C 	C 	0.78570 0.30680 0.08570 0.21500
C 	C 	0.89140 0.34310 0.93890 0.10800
C 	C 	0.01250 0.26870 0.94750 -0.17300
C 	C 	0.42170 0.47650 0.14330 0.33100
C 	C 	0.29570 0.51240 0.22020 -0.06300
C 	C 	0.25910 0.63900 0.26390 0.02100
C 	C 	0.14540 0.66920 0.33630 -0.09900
C 	C 	0.06830 0.57250 0.36710 0.09400
C 	C 	0.21590 0.41780 0.24910 -0.07400
C 	C 	0.10410 0.80860 0.38320 0.36600
C 	C 	0.10470 0.44510 0.32350 0.10900
C 	C 	0.34100 0.00000 -0.00000 -0.21300
N 	N 	0.79480 0.99760 0.37620 -0.29400
N 	N 	0.77950 0.63560 0.99380 -0.27100
N 	N 	0.79480 0.00240 0.62380 -0.35100
N 	N 	0.77950 0.36440 0.00620 -0.32900
O 	O 	0.44400 0.63510 0.90130 -0.30800
O 	O 	0.50350 0.43320 0.87200 -0.44000
O 	O 	0.01390 0.17210 0.54020 -0.42000
O 	O 	0.15350 0.10910 0.65460 -0.31800
O 	O 	0.12890 0.86330 0.95130 -0.25400
O 	O 	0.50620 0.95450 0.12580 -0.27800
O 	O 	0.02940 0.65000 0.64730 -0.13500
O 	O 	0.44400 0.36490 0.09870 -0.34200
O 	O 	0.50350 0.56680 0.12800 -0.46700
O 	O 	0.01390 0.82790 0.45980 -0.39800
O 	O 	0.15350 0.89090 0.34540 -0.29100
O 	O 	0.12890 0.13670 0.04870 -0.31700
O 	O 	0.50620 0.04550 0.87420 -0.31100
O 	O 	0.02940 0.35000 0.35270 -0.14000
