data_crystal

_cell_length_a 13.47500
_cell_length_b 13.50900
_cell_length_c 26.94900
_cell_angle_alpha 90.00000
_cell_angle_beta  90.00000
_cell_angle_gamma 95.18000

_symmetry_space_group_name_	'P 1'
_symmetry_space_group_name_H-M	'P 1'

loop_
_symmetry_equiv_pos_as_xyz
  x,y,z

loop_
_atom_site_label
_atom_site_type_symbol
_atom_site_fract_x
_atom_site_fract_y
_atom_site_fract_z
_atom_site_charge
Zn	Zn	0.22188 0.86237 0.97598 1.17600
Zn	Zn	0.63289 0.74262 0.94572 1.18000
Zn	Zn	0.25765 0.68431 0.07575 1.17000
Zn	Zn	0.18891 0.29313 0.95608 1.16800
Zn	Zn	0.27812 0.63763 0.47598 1.17700
Zn	Zn	0.86711 0.75738 0.44572 1.17900
Zn	Zn	0.24235 0.81569 0.57575 1.16900
Zn	Zn	0.31109 0.20687 0.45608 1.16800
Zn	Zn	0.77812 0.13763 0.02402 1.17600
Zn	Zn	0.36711 0.25738 0.05428 1.18000
Zn	Zn	0.74235 0.31569 0.92425 1.17000
Zn	Zn	0.81109 0.70687 0.04392 1.16800
Zn	Zn	0.72188 0.36237 0.52402 1.17700
Zn	Zn	0.13289 0.24262 0.55428 1.17900
Zn	Zn	0.75765 0.18431 0.42425 1.16900
Zn	Zn	0.68891 0.79313 0.54392 1.16800
H 	H 	0.02120 0.61970 0.07840 -0.01500
H 	H 	0.63870 0.52360 0.90340 -0.02000
H 	H 	0.82640 0.47590 0.01010 -0.03900
H 	H 	0.48270 0.65170 0.03140 -0.05600
H 	H 	0.31980 0.02010 0.05500 -0.04500
H 	H 	0.12030 0.05920 0.95250 -0.01300
H 	H 	0.44470 0.86310 0.93620 -0.01600
H 	H 	0.98570 0.80260 0.96840 -0.02400
H 	H 	0.59960 0.64670 0.79160 0.04700
H 	H 	0.37260 0.88520 0.73660 0.05500
H 	H 	0.60960 0.63580 0.70460 0.05700
H 	H 	0.35500 0.89670 0.82320 0.05800
H 	H 	0.07400 0.89260 0.72210 0.04800
H 	H 	0.60720 0.94570 0.77950 0.04100
H 	H 	0.05860 0.90680 0.80850 0.05300
H 	H 	0.63220 0.93390 0.69420 0.05300
H 	H 	0.47880 0.88030 0.57840 -0.01400
H 	H 	0.86130 0.97640 0.40340 -0.02100
H 	H 	0.67360 0.02410 0.51010 -0.03700
H 	H 	0.01730 0.84830 0.53140 -0.05600
H 	H 	0.18020 0.47990 0.55500 -0.04600
H 	H 	0.37970 0.44080 0.45250 -0.01300
H 	H 	0.05530 0.63690 0.43620 -0.01600
H 	H 	0.51430 0.69740 0.46840 -0.02500
H 	H 	0.90040 0.85330 0.29160 0.04700
H 	H 	0.12740 0.61480 0.23660 0.05500
H 	H 	0.89040 0.86420 0.20460 0.05700
H 	H 	0.14500 0.60330 0.32320 0.05800
H 	H 	0.42600 0.60740 0.22210 0.04800
H 	H 	0.89280 0.55430 0.27950 0.04100
H 	H 	0.44140 0.59320 0.30850 0.05300
H 	H 	0.86780 0.56610 0.19420 0.05300
H 	H 	0.97880 0.38030 0.92160 -0.01500
H 	H 	0.36130 0.47640 0.09660 -0.02000
H 	H 	0.17360 0.52410 0.98990 -0.03900
H 	H 	0.51730 0.34830 0.96860 -0.05600
H 	H 	0.68020 0.97990 0.94500 -0.04500
H 	H 	0.87970 0.94080 0.04750 -0.01300
H 	H 	0.55530 0.13690 0.06380 -0.01600
H 	H 	0.01430 0.19740 0.03160 -0.02400
H 	H 	0.40040 0.35330 0.20840 0.04700
H 	H 	0.62740 0.11480 0.26340 0.05500
H 	H 	0.39040 0.36420 0.29540 0.05700
H 	H 	0.64500 0.10330 0.17680 0.05800
H 	H 	0.92600 0.10740 0.27790 0.04800
H 	H 	0.39280 0.05430 0.22050 0.04100
H 	H 	0.94140 0.09320 0.19150 0.05300
H 	H 	0.36780 0.06610 0.30580 0.05300
H 	H 	0.52120 0.11970 0.42160 -0.01400
H 	H 	0.13870 0.02360 0.59660 -0.02100
H 	H 	0.32640 0.97590 0.48990 -0.03700
H 	H 	0.98270 0.15170 0.46860 -0.05600
H 	H 	0.81980 0.52010 0.44500 -0.04600
H 	H 	0.62030 0.55920 0.54750 -0.01300
H 	H 	0.94470 0.36310 0.56380 -0.01600
H 	H 	0.48570 0.30260 0.53160 -0.02500
H 	H 	0.09960 0.14670 0.70840 0.04700
H 	H 	0.87260 0.38520 0.76340 0.05500
H 	H 	0.10960 0.13580 0.79540 0.05700
H 	H 	0.85500 0.39670 0.67680 0.05800
H 	H 	0.57400 0.39260 0.77790 0.04800
H 	H 	0.10720 0.44570 0.72050 0.04100
H 	H 	0.55860 0.40680 0.69150 0.05300
H 	H 	0.13220 0.43390 0.80580 0.05300
C 	C 	0.20510 0.89890 0.82350 -0.05100
C 	C 	0.03450 0.66600 0.05220 0.09900
C 	C 	0.68020 0.53220 0.93190 0.09800
C 	C 	0.78150 0.50690 0.98927 0.10000
C 	C 	0.45430 0.70330 0.01396 0.09700
C 	C 	0.22350 0.88370 0.72100 -0.05600
C 	C 	0.27700 0.05030 0.03273 0.09500
C 	C 	0.16950 0.07150 0.97750 0.08700
C 	C 	0.43390 0.81660 0.96260 0.09400
C 	C 	0.23410 0.86620 0.66640 0.28000
C 	C 	0.01530 0.76430 0.99310 0.08800
C 	C 	0.60420 0.79820 0.79445 -0.07600
C 	C 	0.62000 0.78350 0.69160 -0.05000
C 	C 	0.60120 0.80540 0.84960 0.32100
C 	C 	0.63330 0.77280 0.63630 0.29300
C 	C 	0.60420 0.70540 0.77190 -0.01000
C 	C 	0.30840 0.88750 0.75100 -0.02600
C 	C 	0.61110 0.69910 0.72010 -0.03600
C 	C 	0.29770 0.89470 0.80250 -0.02900
C 	C 	0.13140 0.89230 0.74250 -0.02300
C 	C 	0.61080 0.88230 0.76470 -0.01300
C 	C 	0.12190 0.90040 0.79400 -0.03100
C 	C 	0.19310 0.89500 0.87980 0.29300
C 	C 	0.62250 0.87530 0.71380 -0.03200
C 	C 	0.29490 0.60110 0.32350 -0.05000
C 	C 	0.46550 0.83400 0.55220 0.09600
C 	C 	0.81980 0.96780 0.43190 0.09700
C 	C 	0.71850 0.99310 0.48927 0.09700
C 	C 	0.04570 0.79670 0.51396 0.09600
C 	C 	0.27650 0.61630 0.22100 -0.05600
C 	C 	0.22300 0.44970 0.53273 0.09600
C 	C 	0.33050 0.42850 0.47750 0.08800
C 	C 	0.06610 0.68340 0.46260 0.09400
C 	C 	0.26590 0.63380 0.16640 0.27900
C 	C 	0.48470 0.73570 0.49310 0.09100
C 	C 	0.89580 0.70180 0.29445 -0.07600
C 	C 	0.88000 0.71650 0.19160 -0.05000
C 	C 	0.89880 0.69460 0.34960 0.32100
C 	C 	0.86670 0.72720 0.13630 0.29300
C 	C 	0.89580 0.79460 0.27190 -0.01000
C 	C 	0.19160 0.61250 0.25100 -0.02600
C 	C 	0.88890 0.80090 0.22010 -0.03700
C 	C 	0.20230 0.60530 0.30250 -0.02900
C 	C 	0.36860 0.60770 0.24250 -0.02300
C 	C 	0.88920 0.61770 0.26470 -0.01300
C 	C 	0.37810 0.59960 0.29400 -0.03100
C 	C 	0.30690 0.60500 0.37980 0.29300
C 	C 	0.87750 0.62470 0.21380 -0.03200
C 	C 	0.79490 0.10110 0.17650 -0.05100
C 	C 	0.96550 0.33400 0.94780 0.09900
C 	C 	0.31980 0.46780 0.06810 0.09800
C 	C 	0.21850 0.49310 0.01073 0.10000
C 	C 	0.54570 0.29670 0.98604 0.09700
C 	C 	0.77650 0.11630 0.27900 -0.05600
C 	C 	0.72300 0.94970 0.96727 0.09500
C 	C 	0.83050 0.92850 0.02250 0.08700
C 	C 	0.56610 0.18340 0.03740 0.09400
C 	C 	0.76590 0.13380 0.33360 0.28000
C 	C 	0.98470 0.23570 0.00690 0.08800
C 	C 	0.39580 0.20180 0.20555 -0.07600
C 	C 	0.38000 0.21650 0.30840 -0.05000
C 	C 	0.39880 0.19460 0.15040 0.32100
C 	C 	0.36670 0.22720 0.36370 0.29300
C 	C 	0.39580 0.29460 0.22810 -0.01000
C 	C 	0.69160 0.11250 0.24900 -0.02600
C 	C 	0.38890 0.30090 0.27990 -0.03600
C 	C 	0.70230 0.10530 0.19750 -0.02900
C 	C 	0.86860 0.10770 0.25750 -0.02300
C 	C 	0.38920 0.11770 0.23530 -0.01300
C 	C 	0.87810 0.09960 0.20600 -0.03100
C 	C 	0.80690 0.10500 0.12020 0.29300
C 	C 	0.37750 0.12470 0.28620 -0.03200
C 	C 	0.70510 0.39890 0.67650 -0.05000
C 	C 	0.53450 0.16600 0.44780 0.09600
C 	C 	0.18020 0.03220 0.56810 0.09700
C 	C 	0.28150 0.00690 0.51073 0.09700
C 	C 	0.95430 0.20330 0.48604 0.09600
C 	C 	0.72350 0.38370 0.77900 -0.05600
C 	C 	0.77700 0.55030 0.46727 0.09600
C 	C 	0.66950 0.57150 0.52250 0.08800
C 	C 	0.93390 0.31660 0.53740 0.09400
C 	C 	0.73410 0.36620 0.83360 0.27900
C 	C 	0.51530 0.26430 0.50690 0.09100
C 	C 	0.10420 0.29820 0.70555 -0.07600
C 	C 	0.12000 0.28350 0.80840 -0.05000
C 	C 	0.10120 0.30540 0.65040 0.32100
C 	C 	0.13330 0.27280 0.86370 0.29300
C 	C 	0.10420 0.20540 0.72810 -0.01000
C 	C 	0.80840 0.38750 0.74900 -0.02600
C 	C 	0.11110 0.19910 0.77990 -0.03700
C 	C 	0.79770 0.39470 0.69750 -0.02900
C 	C 	0.63140 0.39230 0.75750 -0.02300
C 	C 	0.11080 0.38230 0.73530 -0.01300
C 	C 	0.62190 0.40040 0.70600 -0.03100
C 	C 	0.69310 0.39500 0.62020 0.29300
C 	C 	0.12250 0.37530 0.78620 -0.03200
N 	N 	0.49940 0.75290 0.97580 -0.30600
N 	N 	0.21400 0.99910 0.00162 -0.29600
N 	N 	0.73690 0.46310 0.94906 -0.26400
N 	N 	0.36600 0.73390 0.02476 -0.26100
N 	N 	0.12570 0.70210 0.03894 -0.25700
N 	N 	0.68890 0.61420 0.95945 -0.27100
N 	N 	0.35270 0.80780 0.99009 -0.26700
N 	N 	0.27300 0.14660 0.02910 -0.27000
N 	N 	0.20280 0.16020 0.99288 -0.25700
N 	N 	0.96270 0.70220 0.02442 -0.26200
N 	N 	0.75570 0.59740 0.99642 -0.26500
N 	N 	0.11300 0.76630 0.00035 -0.26800
N 	N 	0.00060 0.74710 0.47580 -0.30500
N 	N 	0.28600 0.50090 0.50162 -0.29800
N 	N 	0.76310 0.03690 0.44906 -0.26300
N 	N 	0.13400 0.76610 0.52476 -0.26100
N 	N 	0.37430 0.79790 0.53894 -0.25700
N 	N 	0.81110 0.88580 0.45945 -0.27100
N 	N 	0.14730 0.69220 0.49009 -0.26700
N 	N 	0.22700 0.35340 0.52910 -0.27000
N 	N 	0.29720 0.33980 0.49288 -0.25800
N 	N 	0.53730 0.79780 0.52442 -0.26100
N 	N 	0.74430 0.90260 0.49642 -0.26500
N 	N 	0.38700 0.73370 0.50035 -0.27000
N 	N 	0.50060 0.24710 0.02420 -0.30600
N 	N 	0.78600 0.00090 0.99838 -0.29600
N 	N 	0.26310 0.53690 0.05094 -0.26400
N 	N 	0.63400 0.26610 0.97524 -0.26100
N 	N 	0.87430 0.29790 0.96106 -0.25700
N 	N 	0.31110 0.38580 0.04055 -0.27100
N 	N 	0.64730 0.19220 0.00991 -0.26700
N 	N 	0.72700 0.85340 0.97090 -0.27000
N 	N 	0.79720 0.83980 0.00712 -0.25700
N 	N 	0.03730 0.29780 0.97558 -0.26200
N 	N 	0.24430 0.40260 0.00358 -0.26500
N 	N 	0.88700 0.23370 0.99965 -0.26800
N 	N 	0.99940 0.25290 0.52420 -0.30500
N 	N 	0.71400 0.49910 0.49838 -0.29800
N 	N 	0.23690 0.96310 0.55094 -0.26300
N 	N 	0.86600 0.23390 0.47524 -0.26100
N 	N 	0.62570 0.20210 0.46106 -0.25700
N 	N 	0.18890 0.11420 0.54055 -0.27100
N 	N 	0.85270 0.30780 0.50991 -0.26700
N 	N 	0.77300 0.64660 0.47090 -0.27000
N 	N 	0.70280 0.66020 0.50712 -0.25800
N 	N 	0.46270 0.20220 0.47558 -0.26100
N 	N 	0.25570 0.09740 0.50358 -0.26500
N 	N 	0.61300 0.26630 0.49965 -0.27000
O 	O 	0.26870 0.89040 0.90480 -0.44500
O 	O 	0.62590 0.72890 0.87345 -0.46300
O 	O 	0.15520 0.84430 0.64066 -0.41000
O 	O 	0.31860 0.87110 0.64649 -0.38500
O 	O 	0.66750 0.85120 0.61258 -0.44400
O 	O 	0.57990 0.88180 0.87101 -0.32300
O 	O 	0.61270 0.69230 0.61589 -0.35200
O 	O 	0.10530 0.90020 0.89900 -0.32100
O 	O 	0.23130 0.60960 0.40480 -0.44400
O 	O 	0.87410 0.77110 0.37345 -0.46300
O 	O 	0.34480 0.65570 0.14066 -0.41000
O 	O 	0.18140 0.62890 0.14649 -0.38400
O 	O 	0.83250 0.64880 0.11258 -0.44400
O 	O 	0.92010 0.61820 0.37101 -0.32300
O 	O 	0.88730 0.80770 0.11589 -0.35300
O 	O 	0.39470 0.59980 0.39900 -0.32100
O 	O 	0.73130 0.10960 0.09520 -0.44500
O 	O 	0.37410 0.27110 0.12655 -0.46300
O 	O 	0.84480 0.15570 0.35934 -0.41000
O 	O 	0.68140 0.12890 0.35351 -0.38500
O 	O 	0.33250 0.14880 0.38742 -0.44400
O 	O 	0.42010 0.11820 0.12899 -0.32300
O 	O 	0.38730 0.30770 0.38411 -0.35200
O 	O 	0.89470 0.09980 0.10100 -0.32100
O 	O 	0.76870 0.39040 0.59520 -0.44400
O 	O 	0.12590 0.22890 0.62655 -0.46300
O 	O 	0.65520 0.34430 0.85934 -0.41000
O 	O 	0.81860 0.37110 0.85351 -0.38400
O 	O 	0.16750 0.35120 0.88742 -0.44400
O 	O 	0.07990 0.38180 0.62899 -0.32300
O 	O 	0.11270 0.19230 0.88411 -0.35300
O 	O 	0.60530 0.40020 0.60100 -0.32100
