data_crystal

_cell_length_a 9.90450
_cell_length_b 12.30110
_cell_length_c 17.32200
_cell_angle_alpha 90.00000
_cell_angle_beta  103.70100
_cell_angle_gamma 90.00000

_symmetry_space_group_name_	'P 1'
_symmetry_space_group_name_H-M	'P 1'

loop_
_symmetry_equiv_pos_as_xyz
  x,y,z

loop_
_atom_site_label
_atom_site_type_symbol
_atom_site_fract_x
_atom_site_fract_y
_atom_site_fract_z
_atom_site_charge
Fe	Fe	0.24440 0.42270 0.77870 1.31700
Fe	Fe	0.43750 0.47420 0.62920 1.26600
Fe	Fe	0.13250 0.64740 0.07530 1.21500
Fe	Fe	0.96910 0.61040 0.70930 1.26700
Fe	Fe	0.25560 0.92270 0.72130 1.31500
Fe	Fe	0.06250 0.97420 0.87080 1.26400
Fe	Fe	0.36750 0.14740 0.42470 1.21500
Fe	Fe	0.53090 0.11040 0.79070 1.26600
Fe	Fe	0.75560 0.57730 0.22130 1.31600
Fe	Fe	0.56250 0.52580 0.37080 1.26500
Fe	Fe	0.86750 0.35260 0.92470 1.21400
Fe	Fe	0.03090 0.38960 0.29070 1.26600
Fe	Fe	0.74440 0.07730 0.27870 1.31500
Fe	Fe	0.93750 0.02580 0.12920 1.26400
Fe	Fe	0.63250 0.85260 0.57530 1.21500
Fe	Fe	0.46910 0.88960 0.20930 1.26600
P 	P 	0.69990 0.58580 0.55940 0.57800
P 	P 	0.22070 0.15510 0.79580 0.53000
P 	P 	0.56220 0.37540 0.80800 0.55300
P 	P 	0.08570 0.54230 0.89380 0.55700
P 	P 	0.80010 0.08580 0.94060 0.57700
P 	P 	0.27930 0.65510 0.70420 0.53000
P 	P 	0.93780 0.87540 0.69200 0.55500
P 	P 	0.41430 0.04230 0.60620 0.55600
P 	P 	0.30010 0.41420 0.44060 0.57800
P 	P 	0.77930 0.84490 0.20420 0.53000
P 	P 	0.43780 0.62460 0.19200 0.55300
P 	P 	0.91430 0.45770 0.10620 0.55700
P 	P 	0.19990 0.91420 0.05940 0.57700
P 	P 	0.72070 0.34490 0.29580 0.53000
P 	P 	0.06220 0.12460 0.30800 0.55500
P 	P 	0.58570 0.95770 0.39380 0.55600
O 	O 	0.42880 0.38280 0.83750 -0.36900
O 	O 	0.17280 0.27100 0.76840 -0.32400
O 	O 	0.18930 0.45350 0.88040 -0.36200
O 	O 	0.19060 0.07680 0.72450 -0.35000
O 	O 	0.59930 0.53920 0.60420 -0.43600
O 	O 	0.68400 0.52940 0.47920 -0.36100
O 	O 	0.13580 0.12030 0.85620 -0.35700
O 	O 	0.55650 0.45290 0.73790 -0.38700
O 	O 	0.14640 0.60060 0.97120 -0.38100
O 	O 	0.67150 0.70730 0.54470 -0.42900
O 	O 	0.94830 0.48770 0.89710 -0.42800
O 	O 	0.68270 0.41100 0.87760 -0.36600
O 	O 	0.59180 0.26000 0.78440 -0.43100
O 	O 	0.84940 0.56990 0.60700 -0.36200
O 	O 	0.37590 0.15200 0.83670 -0.35600
O 	O 	0.05750 0.62470 0.82590 -0.37800
O 	O 	0.07120 0.88280 0.66250 -0.37100
O 	O 	0.32720 0.77100 0.73160 -0.32500
O 	O 	0.31070 0.95350 0.61960 -0.36300
O 	O 	0.30940 0.57680 0.77550 -0.35200
O 	O 	0.90070 0.03920 0.89580 -0.43700
O 	O 	0.81600 0.02940 0.02080 -0.36100
O 	O 	0.36420 0.62030 0.64380 -0.36000
O 	O 	0.94350 0.95290 0.76210 -0.38500
O 	O 	0.35360 0.10060 0.52880 -0.38100
O 	O 	0.82850 0.20730 0.95530 -0.43000
O 	O 	0.55170 0.98770 0.60290 -0.42700
O 	O 	0.81730 0.91100 0.62240 -0.36500
O 	O 	0.90820 0.76000 0.71560 -0.43000
O 	O 	0.65060 0.06990 0.89300 -0.36300
O 	O 	0.12410 0.65200 0.66330 -0.35600
O 	O 	0.44250 0.12470 0.67410 -0.37800
O 	O 	0.57120 0.61720 0.16250 -0.36900
O 	O 	0.82720 0.72900 0.23160 -0.32400
O 	O 	0.81070 0.54650 0.11960 -0.36200
O 	O 	0.80940 0.92320 0.27550 -0.35000
O 	O 	0.40070 0.46080 0.39580 -0.43600
O 	O 	0.31600 0.47060 0.52080 -0.36100
O 	O 	0.86420 0.87970 0.14380 -0.35700
O 	O 	0.44350 0.54710 0.26210 -0.38700
O 	O 	0.85360 0.39940 0.02880 -0.38100
O 	O 	0.32850 0.29270 0.45530 -0.42900
O 	O 	0.05170 0.51230 0.10290 -0.42800
O 	O 	0.31730 0.58900 0.12240 -0.36600
O 	O 	0.40820 0.74000 0.21560 -0.43100
O 	O 	0.15060 0.43010 0.39300 -0.36200
O 	O 	0.62410 0.84800 0.16330 -0.35600
O 	O 	0.94250 0.37530 0.17410 -0.37800
O 	O 	0.92880 0.11720 0.33750 -0.37100
O 	O 	0.67280 0.22900 0.26840 -0.32500
O 	O 	0.68930 0.04650 0.38040 -0.36300
O 	O 	0.69060 0.42320 0.22450 -0.35200
O 	O 	0.09930 0.96080 0.10420 -0.43700
O 	O 	0.18400 0.97060 0.97920 -0.36100
O 	O 	0.63580 0.37970 0.35620 -0.36000
O 	O 	0.05650 0.04710 0.23790 -0.38500
O 	O 	0.64640 0.89940 0.47120 -0.38100
O 	O 	0.17150 0.79270 0.04470 -0.43000
O 	O 	0.44830 0.01230 0.39710 -0.42700
O 	O 	0.18270 0.08900 0.37760 -0.36500
O 	O 	0.09180 0.24000 0.28440 -0.43000
O 	O 	0.34940 0.93010 0.10700 -0.36300
O 	O 	0.87590 0.34800 0.33670 -0.35600
O 	O 	0.55750 0.87530 0.32590 -0.37800
F 	F 	0.28550 0.40620 0.67200 -0.59700
F 	F 	0.05040 0.46140 0.72120 -0.60100
F 	F 	0.21450 0.90620 0.82800 -0.59800
F 	F 	0.44960 0.96140 0.77880 -0.60200
F 	F 	0.71450 0.59380 0.32800 -0.59700
F 	F 	0.94960 0.53860 0.27880 -0.60100
F 	F 	0.78550 0.09380 0.17200 -0.59800
F 	F 	0.55040 0.03860 0.22120 -0.60200
