data_crystal

_cell_length_a 9.86600
_cell_length_b 13.96300
_cell_length_c 15.44900
_cell_angle_alpha 90.00000
_cell_angle_beta  90.00000
_cell_angle_gamma 90.00000

_symmetry_space_group_name_	'P 1'
_symmetry_space_group_name_H-M	'P 1'

loop_
_symmetry_equiv_pos_as_xyz
  x,y,z

loop_
_atom_site_label
_atom_site_type_symbol
_atom_site_fract_x
_atom_site_fract_y
_atom_site_fract_z
_atom_site_charge
Zn	Zn	0.59721 0.90409 0.90228 1.24000
Zn	Zn	0.90279 0.59591 0.40228 1.24000
Zn	Zn	0.40279 0.09591 0.09772 1.24000
Zn	Zn	0.09721 0.40409 0.59772 1.24000
P 	P 	0.38092 0.07091 0.89468 0.42200
P 	P 	0.11908 0.42909 0.39468 0.42100
P 	P 	0.61908 0.92909 0.10532 0.42200
P 	P 	0.88092 0.57091 0.60532 0.42100
H 	H 	0.12310 0.97180 0.91820 0.05700
H 	H 	0.87340 0.08960 0.74210 0.06400
H 	H 	0.25490 0.18610 0.76800 0.07100
H 	H 	0.37690 0.52820 0.41820 0.05500
H 	H 	0.62660 0.41040 0.24210 0.06300
H 	H 	0.24510 0.31390 0.26800 0.07000
H 	H 	0.87690 0.02820 0.08180 0.05700
H 	H 	0.12660 0.91040 0.25790 0.06400
H 	H 	0.74510 0.81390 0.23200 0.07100
H 	H 	0.62310 0.47180 0.58180 0.05500
H 	H 	0.37340 0.58960 0.75790 0.06300
H 	H 	0.75490 0.68610 0.73200 0.07000
C 	C 	0.21220 0.07580 0.84810 -0.04400
C 	C 	0.10770 0.01570 0.87400 0.00800
C 	C 	0.98000 0.01960 0.83520 -0.05900
C 	C 	0.95760 0.08650 0.76900 0.02300
C 	C 	0.06120 0.14830 0.74330 -0.06200
C 	C 	0.18690 0.14350 0.78390 0.01000
C 	C 	0.86970 0.95040 0.86160 0.33200
C 	C 	0.04200 0.21940 0.67040 0.33400
C 	C 	0.28780 0.42420 0.34810 -0.04600
C 	C 	0.39230 0.48430 0.37400 0.01300
C 	C 	0.52000 0.48040 0.33520 -0.06500
C 	C 	0.54240 0.41350 0.26900 0.02300
C 	C 	0.43880 0.35170 0.24330 -0.06200
C 	C 	0.31310 0.35650 0.28390 0.01100
C 	C 	0.63030 0.54960 0.36160 0.33600
C 	C 	0.45800 0.28060 0.17040 0.33600
C 	C 	0.78780 0.92420 0.15190 -0.04400
C 	C 	0.89230 0.98430 0.12600 0.00800
C 	C 	0.02000 0.98040 0.16480 -0.05900
C 	C 	0.04240 0.91350 0.23100 0.02300
C 	C 	0.93880 0.85170 0.25670 -0.06200
C 	C 	0.81310 0.85650 0.21610 0.01000
C 	C 	0.13030 0.04960 0.13840 0.33200
C 	C 	0.95800 0.78060 0.32960 0.33400
C 	C 	0.71220 0.57580 0.65190 -0.04600
C 	C 	0.60770 0.51570 0.62600 0.01300
C 	C 	0.48000 0.51960 0.66480 -0.06500
C 	C 	0.45760 0.58650 0.73100 0.02300
C 	C 	0.56120 0.64830 0.75670 -0.06200
C 	C 	0.68690 0.64350 0.71610 0.01100
C 	C 	0.36970 0.45040 0.63840 0.33600
C 	C 	0.54200 0.71940 0.82960 0.33600
O 	O 	0.41750 0.96546 0.90741 -0.42200
O 	O 	0.37390 0.12869 0.97823 -0.41000
O 	O 	0.47420 0.11905 0.82910 -0.21500
O 	O 	0.90260 0.86820 0.88030 -0.26100
O 	O 	0.75030 0.98440 0.86213 -0.41700
O 	O 	0.97670 0.19670 0.60579 -0.25200
O 	O 	0.09600 0.30112 0.68398 -0.41700
O 	O 	0.08250 0.53454 0.40741 -0.42100
O 	O 	0.12610 0.37131 0.47823 -0.41000
O 	O 	0.02580 0.38095 0.32910 -0.21600
O 	O 	0.59740 0.63180 0.38030 -0.26200
O 	O 	0.74970 0.51560 0.36213 -0.41700
O 	O 	0.52330 0.30330 0.10579 -0.25400
O 	O 	0.40400 0.19888 0.18398 -0.41700
O 	O 	0.58250 0.03454 0.09259 -0.42200
O 	O 	0.62610 0.87131 0.02177 -0.41000
O 	O 	0.52580 0.88095 0.17090 -0.21500
O 	O 	0.09740 0.13180 0.11970 -0.26100
O 	O 	0.24970 0.01560 0.13787 -0.41700
O 	O 	0.02330 0.80330 0.39421 -0.25200
O 	O 	0.90400 0.69888 0.31602 -0.41700
O 	O 	0.91750 0.46546 0.59259 -0.42100
O 	O 	0.87390 0.62869 0.52177 -0.41000
O 	O 	0.97420 0.61905 0.67090 -0.21600
O 	O 	0.40260 0.36820 0.61970 -0.26200
O 	O 	0.25030 0.48440 0.63787 -0.41700
O 	O 	0.47670 0.69670 0.89421 -0.25400
O 	O 	0.59600 0.80112 0.81602 -0.41700
