data_crystal

_cell_length_a 12.02390
_cell_length_b 13.48200
_cell_length_c 14.04140
_cell_angle_alpha 70.49100
_cell_angle_beta  77.14100
_cell_angle_gamma 89.31200

_symmetry_space_group_name_	'P 1'
_symmetry_space_group_name_H-M	'P 1'

loop_
_symmetry_equiv_pos_as_xyz
  x,y,z

loop_
_atom_site_label
_atom_site_type_symbol
_atom_site_fract_x
_atom_site_fract_y
_atom_site_fract_z
_atom_site_charge
Zn	Zn	0.07234 0.35811 0.98387 1.24200
Zn	Zn	0.92766 0.64189 0.01613 1.24200
H 	H 	0.06670 0.30870 0.69110 0.03700
H 	H 	0.05290 0.23800 0.56360 0.07100
H 	H 	0.96660 0.95110 0.78490 0.07400
H 	H 	0.97740 0.02360 0.91120 0.04900
H 	H 	0.09460 0.91870 0.63080 0.05700
H 	H 	0.77510 0.10320 0.64810 0.05500
H 	H 	0.65580 0.23500 0.65900 0.05800
H 	H 	0.80970 0.41240 0.35380 0.05900
H 	H 	0.93370 0.26920 0.35230 0.05600
H 	H 	0.74780 0.07670 0.27230 0.08100
H 	H 	0.86200 0.21370 0.13570 0.01100
H 	H 	0.64780 0.42230 0.21720 0.02600
H 	H 	0.52940 0.28450 0.34230 0.08400
H 	H 	0.69510 0.03220 0.47320 0.05400
H 	H 	0.49100 0.10020 0.21970 0.07900
H 	H 	0.38220 0.17960 0.10090 0.03800
H 	H 	0.14160 0.22720 0.31790 0.02800
H 	H 	0.24310 0.14780 0.44450 0.07400
H 	H 	0.93330 0.69130 0.30890 0.03700
H 	H 	0.94710 0.76200 0.43640 0.07100
H 	H 	0.03340 0.04890 0.21510 0.07400
H 	H 	0.02260 0.97640 0.08880 0.04900
H 	H 	0.90540 0.08130 0.36920 0.05700
H 	H 	0.22490 0.89680 0.35190 0.05500
H 	H 	0.34420 0.76500 0.34100 0.05800
H 	H 	0.19030 0.58760 0.64620 0.05900
H 	H 	0.06630 0.73080 0.64770 0.05600
H 	H 	0.25220 0.92330 0.72770 0.08100
H 	H 	0.13800 0.78630 0.86430 0.01100
H 	H 	0.35220 0.57770 0.78280 0.02600
H 	H 	0.47060 0.71550 0.65770 0.08400
H 	H 	0.30490 0.96780 0.52680 0.05400
H 	H 	0.50900 0.89980 0.78030 0.07900
H 	H 	0.61780 0.82040 0.89910 0.03800
H 	H 	0.85840 0.77280 0.68210 0.02800
H 	H 	0.75690 0.85220 0.55550 0.07400
C 	C 	0.02370 0.17350 0.81260 -0.10300
C 	C 	0.04550 0.23570 0.71040 0.03900
C 	C 	0.03700 0.19360 0.63440 -0.10800
C 	C 	0.00600 0.08920 0.65990 0.04900
C 	C 	0.98560 0.02450 0.76550 -0.09900
C 	C 	0.99320 0.06720 0.84020 0.03900
C 	C 	0.02960 0.21960 0.89530 0.33100
C 	C 	0.99840 0.04060 0.57970 -0.00600
C 	C 	0.05600 0.95250 0.57760 -0.07200
C 	C 	0.94180 0.08710 0.50130 0.00500
C 	C 	0.86730 0.17950 0.50070 0.01700
C 	C 	0.78200 0.16650 0.59040 -0.04600
C 	C 	0.71010 0.24150 0.59630 -0.05900
C 	C 	0.71680 0.32290 0.51420 0.02500
C 	C 	0.80460 0.34900 0.41110 -0.05300
C 	C 	0.87730 0.26540 0.41300 -0.05400
C 	C 	0.62940 0.16740 0.32100 0.08300
C 	C 	0.72710 0.14730 0.25970 -0.13800
C 	C 	0.79640 0.22880 0.17930 0.07300
C 	C 	0.76800 0.33240 0.16410 -0.15800
C 	C 	0.66780 0.35180 0.22710 0.07600
C 	C 	0.59870 0.27040 0.30250 -0.13600
C 	C 	0.84360 0.42210 0.08470 0.41800
C 	C 	0.56090 0.07990 0.40930 -0.01500
C 	C 	0.61490 0.01960 0.48420 -0.05500
C 	C 	0.44300 0.05980 0.42390 -0.01100
C 	C 	0.37750 0.11470 0.34520 0.06800
C 	C 	0.41910 0.12520 0.24200 -0.11700
C 	C 	0.35280 0.17330 0.17150 0.04400
C 	C 	0.25490 0.20990 0.19470 -0.10900
C 	C 	0.21340 0.20050 0.29830 0.05000
C 	C 	0.27320 0.15330 0.37430 -0.12300
C 	C 	0.19620 0.25720 0.09350 0.47900
C 	C 	0.97630 0.82650 0.18740 -0.10300
C 	C 	0.95450 0.76430 0.28960 0.03900
C 	C 	0.96300 0.80640 0.36560 -0.10800
C 	C 	0.99400 0.91080 0.34010 0.04900
C 	C 	0.01440 0.97550 0.23450 -0.09900
C 	C 	0.00680 0.93280 0.15980 0.03900
C 	C 	0.97040 0.78040 0.10470 0.33100
C 	C 	0.00160 0.95940 0.42030 -0.00600
C 	C 	0.94400 0.04750 0.42240 -0.07200
C 	C 	0.05820 0.91290 0.49870 0.00500
C 	C 	0.13270 0.82050 0.49930 0.01700
C 	C 	0.21800 0.83350 0.40960 -0.04600
C 	C 	0.28990 0.75850 0.40370 -0.05900
C 	C 	0.28320 0.67710 0.48580 0.02500
C 	C 	0.19540 0.65100 0.58890 -0.05300
C 	C 	0.12270 0.73460 0.58700 -0.05400
C 	C 	0.37060 0.83260 0.67900 0.08300
C 	C 	0.27290 0.85270 0.74030 -0.13800
C 	C 	0.20360 0.77120 0.82070 0.07300
C 	C 	0.23200 0.66760 0.83590 -0.15800
C 	C 	0.33220 0.64820 0.77290 0.07600
C 	C 	0.40130 0.72960 0.69750 -0.13600
C 	C 	0.15640 0.57790 0.91530 0.41800
C 	C 	0.43910 0.92010 0.59070 -0.01500
C 	C 	0.38510 0.98040 0.51580 -0.05500
C 	C 	0.55700 0.94020 0.57610 -0.01100
C 	C 	0.62250 0.88530 0.65480 0.06800
C 	C 	0.58090 0.87480 0.75800 -0.11700
C 	C 	0.64720 0.82670 0.82850 0.04400
C 	C 	0.74510 0.79010 0.80530 -0.10900
C 	C 	0.78660 0.79950 0.70170 0.05000
C 	C 	0.72680 0.84670 0.62570 -0.12300
C 	C 	0.80380 0.74280 0.90650 0.47900
O 	O 	0.99190 0.16870 0.98760 -0.30900
O 	O 	0.07210 0.31370 0.86380 -0.42000
O 	O 	0.91720 0.40526 0.01349 -0.48400
O 	O 	0.82740 0.51216 0.09130 -0.45500
O 	O 	0.24970 0.25750 0.00790 -0.36600
O 	O 	0.11860 0.28810 0.11970 -0.53300
O 	O 	0.00810 0.83130 0.01240 -0.30900
O 	O 	0.92790 0.68630 0.13620 -0.42000
O 	O 	0.08280 0.59474 0.98651 -0.48400
O 	O 	0.17260 0.48784 0.90870 -0.45500
O 	O 	0.75030 0.74250 0.99210 -0.36600
O 	O 	0.88140 0.71190 0.88030 -0.53300
