data_crystal

_cell_length_a 11.67500
_cell_length_b 16.42900
_cell_length_c 20.93400
_cell_angle_alpha 90.00000
_cell_angle_beta  90.00000
_cell_angle_gamma 90.00000

_symmetry_space_group_name_	'P 1'
_symmetry_space_group_name_H-M	'P 1'

loop_
_symmetry_equiv_pos_as_xyz
  x,y,z

loop_
_atom_site_label
_atom_site_type_symbol
_atom_site_fract_x
_atom_site_fract_y
_atom_site_fract_z
_atom_site_charge
Zn	Zn	0.50000 0.75000 0.32695 1.21700
Zn	Zn	-0.00000 0.75000 0.17305 1.20500
Zn	Zn	0.50000 0.25000 0.67305 1.21700
Zn	Zn	-0.00000 0.25000 0.82695 1.20400
Zn	Zn	0.75000 0.76969 0.25000 1.22900
Zn	Zn	0.25000 0.73031 0.25000 1.22800
Zn	Zn	0.25000 0.23031 0.75000 1.22800
Zn	Zn	0.75000 0.26969 0.75000 1.22900
H 	H 	0.62740 0.89410 0.47910 0.01900
H 	H 	0.92520 0.79840 0.41960 0.06500
H 	H 	0.02500 0.85590 0.50670 0.00400
H 	H 	0.09440 0.94680 0.60350 0.07400
H 	H 	0.11740 0.04290 0.68570 0.03000
H 	H 	0.77950 0.09480 0.68440 0.03100
H 	H 	0.58700 0.03910 0.52570 0.13800
H 	H 	0.61750 0.09500 0.58390 0.14100
H 	H 	0.76820 0.07680 0.48020 -0.07000
H 	H 	0.77760 0.14280 0.53430 -0.06500
H 	H 	0.69580 0.20370 0.44030 0.25400
H 	H 	0.60560 0.20680 0.49570 0.25700
H 	H 	0.59510 0.14070 0.44210 0.23900
H 	H 	0.60190 0.98780 0.65740 0.14200
H 	H 	0.56410 0.93010 0.60170 0.12800
H 	H 	0.74540 0.89300 0.68440 -0.06000
H 	H 	0.69470 0.83390 0.63230 -0.07400
H 	H 	0.60490 0.80460 0.73640 0.21900
H 	H 	0.51060 0.83290 0.68790 0.21100
H 	H 	0.55830 0.89400 0.73890 0.23100
H 	H 	0.37260 0.60590 0.47910 -0.00300
H 	H 	0.07480 0.70160 0.41960 -0.00900
H 	H 	0.97500 0.64410 0.50670 0.14200
H 	H 	0.90560 0.55320 0.60350 0.04700
H 	H 	0.88260 0.45710 0.68570 0.02300
H 	H 	0.22050 0.40520 0.68440 0.03100
H 	H 	0.41300 0.46090 0.52570 0.14300
H 	H 	0.38250 0.40500 0.58390 0.14500
H 	H 	0.23180 0.42320 0.48020 -0.07800
H 	H 	0.22240 0.35720 0.53430 -0.07400
H 	H 	0.30420 0.29630 0.44030 0.25500
H 	H 	0.39440 0.29320 0.49570 0.26100
H 	H 	0.40490 0.35930 0.44210 0.24200
H 	H 	0.39810 0.51220 0.65740 0.14800
H 	H 	0.43590 0.56990 0.60170 0.13500
H 	H 	0.25460 0.60700 0.68440 -0.06800
H 	H 	0.30530 0.66610 0.63230 -0.08100
H 	H 	0.39510 0.69540 0.73640 0.22200
H 	H 	0.48940 0.66710 0.68790 0.21700
H 	H 	0.44170 0.60600 0.73890 0.23600
H 	H 	0.12740 0.60590 0.02090 -0.00000
H 	H 	0.42520 0.70160 0.08040 0.02700
H 	H 	0.52500 0.64410 0.99330 0.07400
H 	H 	0.59440 0.55320 0.89650 0.06200
H 	H 	0.61740 0.45710 0.81430 0.02900
H 	H 	0.27950 0.40520 0.81560 0.03200
H 	H 	0.08700 0.46090 0.97430 0.11900
H 	H 	0.11750 0.40500 0.91610 0.12500
H 	H 	0.26820 0.42320 0.01980 -0.06000
H 	H 	0.27760 0.35720 0.96570 -0.05400
H 	H 	0.19580 0.29630 0.05970 0.23000
H 	H 	0.10560 0.29320 0.00430 0.23000
H 	H 	0.09510 0.35930 0.05790 0.20800
H 	H 	0.10190 0.51220 0.84260 0.12800
H 	H 	0.06410 0.56990 0.89830 0.11000
H 	H 	0.24540 0.60700 0.81560 -0.04900
H 	H 	0.19470 0.66610 0.86770 -0.06400
H 	H 	0.10490 0.69540 0.76360 0.19300
H 	H 	0.01060 0.66710 0.81210 0.18000
H 	H 	0.05830 0.60600 0.76110 0.20600
H 	H 	0.87260 0.89410 0.02090 0.01600
H 	H 	0.57480 0.79840 0.08040 0.02900
H 	H 	0.47500 0.85590 0.99330 0.07100
H 	H 	0.40560 0.94680 0.89650 0.06100
H 	H 	0.38260 0.04290 0.81430 0.02400
H 	H 	0.72050 0.09480 0.81560 0.02900
H 	H 	0.91300 0.03910 0.97430 0.16400
H 	H 	0.88250 0.09500 0.91610 0.16200
H 	H 	0.73180 0.07680 0.01980 -0.08900
H 	H 	0.72240 0.14280 0.96570 -0.08500
H 	H 	0.80420 0.20370 0.05970 0.28000
H 	H 	0.89440 0.20680 0.00430 0.28900
H 	H 	0.90490 0.14070 0.05790 0.27500
H 	H 	0.89810 0.98780 0.84260 0.16100
H 	H 	0.93590 0.93010 0.89830 0.15400
H 	H 	0.75460 0.89300 0.81560 -0.07900
H 	H 	0.80530 0.83390 0.86770 -0.09000
H 	H 	0.89510 0.80460 0.76360 0.24900
H 	H 	0.98940 0.83290 0.81210 0.24900
H 	H 	0.94170 0.89400 0.76110 0.26100
H 	H 	0.37260 0.10590 0.52090 -0.00400
H 	H 	0.07480 0.20160 0.58040 -0.01000
H 	H 	0.97500 0.14410 0.49330 0.14200
H 	H 	0.90560 0.05320 0.39650 0.04600
H 	H 	0.88260 0.95710 0.31430 0.02400
H 	H 	0.22050 0.90520 0.31560 0.03000
H 	H 	0.41300 0.96090 0.47430 0.14400
H 	H 	0.38250 0.90500 0.41610 0.14600
H 	H 	0.23180 0.92320 0.51980 -0.08000
H 	H 	0.22240 0.85720 0.46570 -0.07500
H 	H 	0.30420 0.79630 0.55970 0.25600
H 	H 	0.39440 0.79320 0.50430 0.26200
H 	H 	0.40490 0.85930 0.55790 0.24300
H 	H 	0.39810 0.01220 0.34260 0.15000
H 	H 	0.43590 0.06990 0.39830 0.13700
H 	H 	0.25460 0.10700 0.31560 -0.06900
H 	H 	0.30530 0.16610 0.36770 -0.08200
H 	H 	0.39510 0.19540 0.26360 0.22300
H 	H 	0.48940 0.16710 0.31210 0.21800
H 	H 	0.44170 0.10600 0.26110 0.23700
H 	H 	0.62740 0.39410 0.52090 0.01900
H 	H 	0.92520 0.29840 0.58040 0.06600
H 	H 	0.02500 0.35590 0.49330 0.00300
H 	H 	0.09440 0.44680 0.39650 0.07500
H 	H 	0.11740 0.54290 0.31430 0.03000
H 	H 	0.77950 0.59480 0.31560 0.02900
H 	H 	0.58700 0.53910 0.47430 0.14000
H 	H 	0.61750 0.59500 0.41610 0.14200
H 	H 	0.76820 0.57680 0.51980 -0.07200
H 	H 	0.77760 0.64280 0.46570 -0.06700
H 	H 	0.69580 0.70370 0.55970 0.25500
H 	H 	0.60560 0.70680 0.50430 0.25800
H 	H 	0.59510 0.64070 0.55790 0.24000
H 	H 	0.60190 0.48780 0.34260 0.14400
H 	H 	0.56410 0.43010 0.39830 0.13000
H 	H 	0.74540 0.39300 0.31560 -0.06100
H 	H 	0.69470 0.33390 0.36770 -0.07500
H 	H 	0.60490 0.30460 0.26360 0.22100
H 	H 	0.51060 0.33290 0.31210 0.21300
H 	H 	0.55830 0.39400 0.26110 0.23200
H 	H 	0.87260 0.39410 0.97910 0.01600
H 	H 	0.57480 0.29840 0.91960 0.02900
H 	H 	0.47500 0.35590 0.00670 0.07100
H 	H 	0.40560 0.44680 0.10350 0.06000
H 	H 	0.38260 0.54290 0.18570 0.02400
H 	H 	0.72050 0.59480 0.18440 0.02800
H 	H 	0.91300 0.53910 0.02570 0.16500
H 	H 	0.88250 0.59500 0.08390 0.16300
H 	H 	0.73180 0.57680 0.98020 -0.09000
H 	H 	0.72240 0.64280 0.03430 -0.08700
H 	H 	0.80420 0.70370 0.94030 0.28100
H 	H 	0.89440 0.70680 0.99570 0.29000
H 	H 	0.90490 0.64070 0.94210 0.27600
H 	H 	0.89810 0.48780 0.15740 0.16400
H 	H 	0.93590 0.43010 0.10170 0.15700
H 	H 	0.75460 0.39300 0.18440 -0.08000
H 	H 	0.80530 0.33390 0.13230 -0.09200
H 	H 	0.89510 0.30460 0.23640 0.25100
H 	H 	0.98940 0.33290 0.18790 0.25000
H 	H 	0.94170 0.39400 0.23890 0.26300
H 	H 	0.12740 0.10590 0.97910 -0.00100
H 	H 	0.42520 0.20160 0.91960 0.02700
H 	H 	0.52500 0.14410 0.00670 0.07400
H 	H 	0.59440 0.05320 0.10350 0.06100
H 	H 	0.61740 0.95710 0.18570 0.02900
H 	H 	0.27950 0.90520 0.18440 0.03100
H 	H 	0.08700 0.96090 0.02570 0.12000
H 	H 	0.11750 0.90500 0.08390 0.12600
H 	H 	0.26820 0.92320 0.98020 -0.06100
H 	H 	0.27760 0.85720 0.03430 -0.05500
H 	H 	0.19580 0.79630 0.94030 0.23000
H 	H 	0.10560 0.79320 0.99570 0.23000
H 	H 	0.09510 0.85930 0.94210 0.20800
H 	H 	0.10190 0.01220 0.15740 0.13000
H 	H 	0.06410 0.06990 0.10170 0.11100
H 	H 	0.24540 0.10700 0.18440 -0.05000
H 	H 	0.19470 0.16610 0.13230 -0.06500
H 	H 	0.10490 0.19540 0.23640 0.19400
H 	H 	0.01060 0.16710 0.18790 0.18100
H 	H 	0.05830 0.10600 0.23890 0.20700
C 	C 	0.70630 0.88930 0.48380 0.00800
C 	C 	0.77040 0.84200 0.44180 -0.10900
C 	C 	0.88620 0.83030 0.44910 -0.01900
C 	C 	0.94730 0.86530 0.50010 0.00700
C 	C 	0.03290 0.97680 0.61920 -0.15800
C 	C 	0.04530 0.03430 0.66810 -0.00800
C 	C 	0.95120 0.07960 0.69140 -0.07500
C 	C 	0.84190 0.06700 0.66740 0.01600
C 	C 	0.71670 0.98860 0.58250 0.18900
C 	C 	0.76340 0.92920 0.53300 -0.06100
C 	C 	0.88140 0.91570 0.54060 -0.01200
C 	C 	0.91980 0.96730 0.59530 0.08900
C 	C 	0.82730 0.01130 0.61680 -0.08300
C 	C 	0.71380 0.80130 0.38710 0.40100
C 	C 	0.97190 0.14210 0.74730 0.42500
C 	C 	0.64980 0.06090 0.55070 -0.40500
C 	C 	0.72430 0.11170 0.50850 0.32400
C 	C 	0.64770 0.17160 0.46760 -0.77100
C 	C 	0.62920 0.94790 0.62680 -0.39900
C 	C 	0.67630 0.87770 0.66160 0.28400
C 	C 	0.57740 0.84940 0.71130 -0.69600
C 	C 	0.29370 0.61070 0.48380 0.07600
C 	C 	0.22960 0.65800 0.44180 -0.19100
C 	C 	0.11380 0.66970 0.44910 0.12900
C 	C 	0.05270 0.63470 0.50010 -0.24600
C 	C 	0.96710 0.52320 0.61920 -0.04400
C 	C 	0.95470 0.46570 0.66810 0.04400
C 	C 	0.04880 0.42040 0.69140 -0.12800
C 	C 	0.15810 0.43300 0.66740 0.01300
C 	C 	0.28330 0.51140 0.58250 0.20900
C 	C 	0.23660 0.57080 0.53300 -0.12300
C 	C 	0.11860 0.58430 0.54060 0.10000
C 	C 	0.08020 0.53270 0.59530 -0.03700
C 	C 	0.17270 0.48870 0.61680 -0.06100
C 	C 	0.28620 0.69870 0.38710 0.43100
C 	C 	0.02810 0.35790 0.74730 0.34400
C 	C 	0.35020 0.43910 0.55070 -0.42400
C 	C 	0.27570 0.38830 0.50850 0.34100
C 	C 	0.35230 0.32840 0.46760 -0.78400
C 	C 	0.37080 0.55210 0.62680 -0.41800
C 	C 	0.32370 0.62230 0.66160 0.30000
C 	C 	0.42260 0.65060 0.71130 -0.71200
C 	C 	0.20630 0.61070 0.01620 0.04200
C 	C 	0.27040 0.65800 0.05820 -0.15300
C 	C 	0.38620 0.66970 0.05090 0.05600
C 	C 	0.44730 0.63470 0.99990 -0.12000
C 	C 	0.53290 0.52320 0.88080 -0.09800
C 	C 	0.54530 0.46570 0.83190 0.01500
C 	C 	0.45120 0.42040 0.80860 -0.09900
C 	C 	0.34190 0.43300 0.83260 0.01000
C 	C 	0.21670 0.51140 0.91750 0.17700
C 	C 	0.26340 0.57080 0.96700 -0.08900
C 	C 	0.38140 0.58430 0.95940 0.04300
C 	C 	0.41980 0.53270 0.90470 0.02500
C 	C 	0.32730 0.48870 0.88320 -0.06700
C 	C 	0.21380 0.69870 0.11290 0.41900
C 	C 	0.47190 0.35790 0.75270 0.38300
C 	C 	0.14980 0.43910 0.94930 -0.37400
C 	C 	0.22430 0.38830 0.99150 0.28200
C 	C 	0.14770 0.32840 0.03240 -0.70800
C 	C 	0.12920 0.55210 0.87320 -0.36700
C 	C 	0.17630 0.62230 0.83840 0.24200
C 	C 	0.07740 0.65060 0.78870 -0.63700
C 	C 	0.79370 0.88930 0.01620 0.04100
C 	C 	0.72960 0.84200 0.05820 -0.14500
C 	C 	0.61380 0.83030 0.05090 0.05200
C 	C 	0.55270 0.86530 0.99990 -0.11700
C 	C 	0.46710 0.97680 0.88080 -0.10600
C 	C 	0.45470 0.03430 0.83190 0.02300
C 	C 	0.54880 0.07960 0.80860 -0.10400
C 	C 	0.65810 0.06700 0.83260 0.02000
C 	C 	0.78330 0.98860 0.91750 0.22100
C 	C 	0.73660 0.92920 0.96700 -0.09500
C 	C 	0.61860 0.91570 0.95940 0.04300
C 	C 	0.58020 0.96730 0.90470 0.03000
C 	C 	0.67270 0.01130 0.88320 -0.07800
C 	C 	0.78620 0.80130 0.11290 0.41200
C 	C 	0.52810 0.14210 0.75270 0.38500
C 	C 	0.85020 0.06090 0.94930 -0.45700
C 	C 	0.77570 0.11170 0.99150 0.38500
C 	C 	0.85230 0.17160 0.03240 -0.84900
C 	C 	0.87080 0.94790 0.87320 -0.45100
C 	C 	0.82370 0.87770 0.83840 0.34300
C 	C 	0.92260 0.84940 0.78870 -0.77200
C 	C 	0.29370 0.11070 0.51620 0.07800
C 	C 	0.22960 0.15800 0.55820 -0.19100
C 	C 	0.11380 0.16970 0.55090 0.12900
C 	C 	0.05270 0.13470 0.49990 -0.24700
C 	C 	0.96710 0.02320 0.38080 -0.04000
C 	C 	0.95470 0.96570 0.33190 0.03900
C 	C 	0.04880 0.92040 0.30860 -0.12700
C 	C 	0.15810 0.93300 0.33260 0.01400
C 	C 	0.28330 0.01140 0.41750 0.21400
C 	C 	0.23660 0.07080 0.46700 -0.12400
C 	C 	0.11860 0.08430 0.45940 0.10000
C 	C 	0.08020 0.03270 0.40470 -0.03500
C 	C 	0.17270 0.98870 0.38320 -0.06500
C 	C 	0.28620 0.19870 0.61290 0.43100
C 	C 	0.02810 0.85790 0.25270 0.34400
C 	C 	0.35020 0.93910 0.44930 -0.43000
C 	C 	0.27570 0.88830 0.49150 0.34500
C 	C 	0.35230 0.82840 0.53240 -0.78800
C 	C 	0.37080 0.05210 0.37320 -0.42200
C 	C 	0.32370 0.12230 0.33840 0.30400
C 	C 	0.42260 0.15060 0.28870 -0.71500
C 	C 	0.70630 0.38930 0.51620 0.00900
C 	C 	0.77040 0.34200 0.55820 -0.10900
C 	C 	0.88620 0.33030 0.55090 -0.02000
C 	C 	0.94730 0.36530 0.49990 0.01000
C 	C 	0.03290 0.47680 0.38080 -0.15900
C 	C 	0.04530 0.53430 0.33190 -0.00800
C 	C 	0.95120 0.57960 0.30860 -0.07700
C 	C 	0.84190 0.56700 0.33260 0.01900
C 	C 	0.71670 0.48860 0.41750 0.19600
C 	C 	0.76340 0.42920 0.46700 -0.06200
C 	C 	0.88140 0.41570 0.45940 -0.01300
C 	C 	0.91980 0.46730 0.40470 0.09500
C 	C 	0.82730 0.51130 0.38320 -0.09000
C 	C 	0.71380 0.30130 0.61290 0.40100
C 	C 	0.97190 0.64210 0.25270 0.42500
C 	C 	0.64980 0.56090 0.44930 -0.41200
C 	C 	0.72430 0.61170 0.49150 0.32900
C 	C 	0.64770 0.67160 0.53240 -0.77500
C 	C 	0.62920 0.44790 0.37320 -0.40500
C 	C 	0.67630 0.37770 0.33840 0.28800
C 	C 	0.57740 0.34940 0.28870 -0.70000
C 	C 	0.79370 0.38930 0.98380 0.04300
C 	C 	0.72960 0.34200 0.94180 -0.14500
C 	C 	0.61380 0.33030 0.94910 0.05300
C 	C 	0.55270 0.36530 0.00010 -0.11800
C 	C 	0.46710 0.47680 0.11920 -0.10400
C 	C 	0.45470 0.53430 0.16810 0.02100
C 	C 	0.54880 0.57960 0.19140 -0.10500
C 	C 	0.65810 0.56700 0.16740 0.02200
C 	C 	0.78330 0.48860 0.08250 0.22800
C 	C 	0.73660 0.42920 0.03300 -0.09700
C 	C 	0.61860 0.41570 0.04060 0.04400
C 	C 	0.58020 0.46730 0.09530 0.03200
C 	C 	0.67270 0.51130 0.11680 -0.08400
C 	C 	0.78620 0.30130 0.88710 0.41200
C 	C 	0.52810 0.64210 0.24730 0.38500
C 	C 	0.85020 0.56090 0.05070 -0.46300
C 	C 	0.77570 0.61170 0.00850 0.38900
C 	C 	0.85230 0.67160 0.96760 -0.85200
C 	C 	0.87080 0.44790 0.12680 -0.45700
C 	C 	0.82370 0.37770 0.16160 0.34700
C 	C 	0.92260 0.34940 0.21130 -0.77700
C 	C 	0.20630 0.11070 0.98380 0.04400
C 	C 	0.27040 0.15800 0.94180 -0.15400
C 	C 	0.38620 0.16970 0.94910 0.05700
C 	C 	0.44730 0.13470 0.00010 -0.12000
C 	C 	0.53290 0.02320 0.11920 -0.09600
C 	C 	0.54530 0.96570 0.16810 0.01200
C 	C 	0.45120 0.92040 0.19140 -0.10000
C 	C 	0.34190 0.93300 0.16740 0.01200
C 	C 	0.21670 0.01140 0.08250 0.18300
C 	C 	0.26340 0.07080 0.03300 -0.09000
C 	C 	0.38140 0.08430 0.04060 0.04400
C 	C 	0.41980 0.03270 0.09530 0.02700
C 	C 	0.32730 0.98870 0.11680 -0.07200
C 	C 	0.21380 0.19870 0.88710 0.41900
C 	C 	0.47190 0.85790 0.24730 0.38300
C 	C 	0.14980 0.93910 0.05070 -0.38000
C 	C 	0.22430 0.88830 0.00850 0.28400
C 	C 	0.14770 0.82840 0.96760 -0.71100
C 	C 	0.12920 0.05210 0.12680 -0.37100
C 	C 	0.17630 0.12230 0.16160 0.24600
C 	C 	0.07740 0.15060 0.21130 -0.64000
O 	O 	0.60680 0.79470 0.39060 -0.49900
O 	O 	0.77430 0.77600 0.34160 -0.48500
O 	O 	0.89070 0.17660 0.76680 -0.56400
O 	O 	0.07950 0.15080 0.75790 -0.51000
O 	O 	0.39320 0.70530 0.39060 -0.50700
O 	O 	0.22570 0.72400 0.34160 -0.49800
O 	O 	0.10930 0.32340 0.76680 -0.55100
O 	O 	0.92050 0.34920 0.75790 -0.44200
O 	O 	0.10680 0.70530 0.10940 -0.51500
O 	O 	0.27430 0.72400 0.15840 -0.49400
O 	O 	0.39070 0.32340 0.73320 -0.55900
O 	O 	0.57950 0.34920 0.74210 -0.47700
O 	O 	0.89320 0.79470 0.10940 -0.48600
O 	O 	0.72570 0.77600 0.15840 -0.48900
O 	O 	0.60930 0.17660 0.73320 -0.55900
O 	O 	0.42050 0.15080 0.74210 -0.47800
O 	O 	0.39320 0.20530 0.60940 -0.50600
O 	O 	0.22570 0.22400 0.65840 -0.49800
O 	O 	0.10930 0.82340 0.23320 -0.55100
O 	O 	0.92050 0.84920 0.24210 -0.44200
O 	O 	0.60680 0.29470 0.60940 -0.49900
O 	O 	0.77430 0.27600 0.65840 -0.48500
O 	O 	0.89070 0.67660 0.23320 -0.56400
O 	O 	0.07950 0.65080 0.24210 -0.51000
O 	O 	0.89320 0.29470 0.89060 -0.48500
O 	O 	0.72570 0.27600 0.84160 -0.48900
O 	O 	0.60930 0.67660 0.26680 -0.55900
O 	O 	0.42050 0.65080 0.25790 -0.47800
O 	O 	0.10680 0.20530 0.89060 -0.51500
O 	O 	0.27430 0.22400 0.84160 -0.49400
O 	O 	0.39070 0.82340 0.26680 -0.55900
O 	O 	0.57950 0.84920 0.25790 -0.47700
