data_crystal

_cell_length_a 7.35620
_cell_length_b 7.35620
_cell_length_c 16.30000
_cell_angle_alpha 90.75680
_cell_angle_beta  90.75680
_cell_angle_gamma 95.90110

_symmetry_space_group_name_	'P 1'
_symmetry_space_group_name_H-M	'P 1'

loop_
_symmetry_equiv_pos_as_xyz
  x,y,z

loop_
_atom_site_label
_atom_site_type_symbol
_atom_site_fract_x
_atom_site_fract_y
_atom_site_fract_z
_atom_site_charge
Zn	Zn	0.97958 0.02042 0.75000 1.24200
Zn	Zn	0.02042 0.97958 0.25000 1.24200
H 	H 	0.81440 0.03780 0.01140 0.06400
H 	H 	0.96220 0.18560 0.48860 0.06600
H 	H 	0.18560 0.96220 0.98860 0.06400
H 	H 	0.03780 0.81440 0.51140 0.06600
C 	C 	0.60510 0.03570 0.93010 -0.02600
C 	C 	0.41630 0.01370 0.92270 -0.03900
C 	C 	0.68760 0.02240 0.00680 0.01000
C 	C 	0.73270 0.06550 0.85850 0.31300
C 	C 	0.31860 0.03340 0.84150 0.35300
C 	C 	0.96430 0.39490 0.56990 -0.01900
C 	C 	0.98630 0.58370 0.57730 -0.03400
C 	C 	0.97760 0.31240 0.49320 -0.00300
C 	C 	0.93450 0.26730 0.64150 0.31400
C 	C 	0.96660 0.68140 0.65850 0.35400
C 	C 	0.39490 0.96430 0.06990 -0.02600
C 	C 	0.58370 0.98630 0.07730 -0.03900
C 	C 	0.31240 0.97760 0.99320 0.01000
C 	C 	0.26730 0.93450 0.14150 0.31300
C 	C 	0.68140 0.96660 0.15850 0.35300
C 	C 	0.03570 0.60510 0.43010 -0.01900
C 	C 	0.01370 0.41630 0.42270 -0.03400
C 	C 	0.02240 0.68760 0.50680 -0.00300
C 	C 	0.06550 0.73270 0.35850 0.31400
C 	C 	0.03340 0.31860 0.34150 0.35400
O 	O 	0.15410 0.97270 0.83810 -0.41100
O 	O 	0.75790 0.93010 0.81450 -0.36500
O 	O 	0.81710 0.21570 0.84980 -0.28200
O 	O 	0.40490 0.10930 0.78580 -0.23800
O 	O 	0.02730 0.84590 0.66190 -0.41300
O 	O 	0.06990 0.24210 0.68550 -0.36700
O 	O 	0.78430 0.18290 0.65020 -0.28100
O 	O 	0.89070 0.59510 0.71420 -0.23800
O 	O 	0.84590 0.02730 0.16190 -0.41100
O 	O 	0.24210 0.06990 0.18550 -0.36500
O 	O 	0.18290 0.78430 0.15020 -0.28200
O 	O 	0.59510 0.89070 0.21420 -0.23800
O 	O 	0.97270 0.15410 0.33810 -0.41300
O 	O 	0.93010 0.75790 0.31450 -0.36700
O 	O 	0.21570 0.81710 0.34980 -0.28100
O 	O 	0.10930 0.40490 0.28580 -0.23800
