data_crystal

_cell_length_a 10.07050
_cell_length_b 11.46670
_cell_length_c 15.21240
_cell_angle_alpha 90.89080
_cell_angle_beta  90.00000
_cell_angle_gamma 90.00000

_symmetry_space_group_name_	'P 1'
_symmetry_space_group_name_H-M	'P 1'

loop_
_symmetry_equiv_pos_as_xyz
  x,y,z

loop_
_atom_site_label
_atom_site_type_symbol
_atom_site_fract_x
_atom_site_fract_y
_atom_site_fract_z
_atom_site_charge
Fe	Fe	0.92826 0.75421 0.13433 1.25300
Fe	Fe	0.87582 0.25948 0.69763 1.23000
Fe	Fe	0.42826 0.74579 0.36567 1.20100
Fe	Fe	0.37582 0.24052 0.80237 1.20600
Fe	Fe	0.07174 0.24579 0.86567 1.14100
Fe	Fe	0.12418 0.74052 0.30237 1.18900
Fe	Fe	0.57174 0.25421 0.63433 1.19300
Fe	Fe	0.62418 0.75948 0.19763 1.21200
Fe	Fe	-0.00000 0.50000 -0.00000 1.10800
Fe	Fe	0.50000 0.00000 0.50000 1.18700
Fe	Fe	-0.00000 0.00000 -0.00000 1.07800
Fe	Fe	0.50000 0.50000 0.50000 1.22900
H 	H 	0.77400 0.85020 0.36820 -0.07500
H 	H 	0.05900 0.47600 0.25400 -0.13900
H 	H 	0.62300 0.53460 0.07760 -0.08600
H 	H 	0.22800 0.96360 0.20660 -0.14900
H 	H 	0.12900 0.69640 0.91540 -0.12700
H 	H 	0.71700 0.99410 0.03110 -0.12700
H 	H 	0.27400 0.64980 0.13180 -0.11900
H 	H 	0.55900 0.02400 0.24600 -0.24600
H 	H 	0.12300 0.96540 0.42240 -0.07300
H 	H 	0.72800 0.53640 0.29340 -0.09800
H 	H 	0.62900 0.80360 0.58460 -0.06000
H 	H 	0.21700 0.50590 0.46890 -0.14800
H 	H 	0.22600 0.14980 0.63180 -0.12000
H 	H 	0.94100 0.52400 0.74600 -0.06500
H 	H 	0.37700 0.46540 0.92240 -0.03700
H 	H 	0.77200 0.03640 0.79340 -0.07500
H 	H 	0.87100 0.30360 0.08460 -0.01900
H 	H 	0.28300 0.00590 0.96890 -0.11400
H 	H 	0.72600 0.35020 0.86820 -0.07300
H 	H 	0.44100 0.97600 0.75400 0.04100
H 	H 	0.87700 0.03460 0.57760 -0.05100
H 	H 	0.27200 0.46360 0.70660 -0.13000
H 	H 	0.37100 0.19640 0.41540 -0.09900
H 	H 	0.78300 0.49410 0.53110 -0.10800
C 	C 	0.84610 0.82473 0.32913 0.45200
C 	C 	0.03910 0.51935 0.20335 0.51900
C 	C 	0.71990 0.56253 0.07083 0.43100
C 	C 	0.15640 0.94033 0.16923 0.62000
C 	C 	0.08190 0.74168 0.96128 0.61400
C 	C 	0.73180 0.93435 0.06695 0.50800
C 	C 	0.34610 0.67527 0.17087 0.46400
C 	C 	0.53910 0.98065 0.29665 0.76700
C 	C 	0.21990 0.93747 0.42917 0.42100
C 	C 	0.65640 0.55967 0.33077 0.48300
C 	C 	0.58190 0.75832 0.53872 0.44400
C 	C 	0.23180 0.56565 0.43305 0.53300
C 	C 	0.15390 0.17527 0.67087 0.46700
C 	C 	0.96090 0.48065 0.79665 0.45900
C 	C 	0.28010 0.43747 0.92917 0.41000
C 	C 	0.84360 0.05967 0.83077 0.34800
C 	C 	0.91810 0.25832 0.03872 0.26300
C 	C 	0.26820 0.06565 0.93305 0.51700
C 	C 	0.65390 0.32473 0.82913 0.45300
C 	C 	0.46090 0.01935 0.70335 0.21500
C 	C 	0.78010 0.06253 0.57083 0.42900
C 	C 	0.34360 0.44033 0.66923 0.49500
C 	C 	0.41810 0.24168 0.46128 0.45700
C 	C 	0.76820 0.43435 0.56695 0.50900
O 	O 	0.81432 0.80622 0.24937 -0.51700
O 	O 	0.95715 0.81056 0.36208 -0.35500
O 	O 	0.01838 0.62782 0.21357 -0.60900
O 	O 	0.03030 0.46315 0.13410 -0.50900
O 	O 	0.75231 0.65013 0.11919 -0.52200
O 	O 	0.79511 0.50789 0.02062 -0.43200
O 	O 	0.09532 0.84694 0.18904 -0.62000
O 	O 	0.13179 0.00462 0.10767 -0.58100
O 	O 	0.01881 0.68628 0.02060 -0.69700
O 	O 	0.09013 0.84838 0.95423 -0.42000
O 	O 	0.85255 0.89993 0.06980 -0.51700
O 	O 	0.63634 0.89364 0.10705 -0.44000
O 	O 	0.31432 0.69378 0.25063 -0.54800
O 	O 	0.45715 0.68944 0.13792 -0.45100
O 	O 	0.51838 0.87218 0.28643 -0.61600
O 	O 	0.53030 0.03685 0.36590 -0.56200
O 	O 	0.25231 0.84987 0.38081 -0.53400
O 	O 	0.29511 0.99211 0.47938 -0.38500
O 	O 	0.59532 0.65306 0.31096 -0.54700
O 	O 	0.63179 0.49538 0.39233 -0.42700
O 	O 	0.51881 0.81372 0.47940 -0.52100
O 	O 	0.59013 0.65162 0.54577 -0.42300
O 	O 	0.35255 0.60007 0.43020 -0.56600
O 	O 	0.13634 0.60636 0.39295 -0.47900
O 	O 	0.18568 0.19378 0.75063 -0.57700
O 	O 	0.04285 0.18944 0.63792 -0.51300
O 	O 	0.98162 0.37218 0.78643 -0.49400
O 	O 	0.96970 0.53685 0.86590 -0.33100
O 	O 	0.24769 0.34987 0.88081 -0.53400
O 	O 	0.20489 0.49211 0.97938 -0.36700
O 	O 	0.90468 0.15306 0.81096 -0.47400
O 	O 	0.86821 0.99538 0.89233 -0.24300
O 	O 	0.98119 0.31372 0.97940 -0.33700
O 	O 	0.90987 0.15162 0.04577 -0.38700
O 	O 	0.14745 0.10007 0.93020 -0.55700
O 	O 	0.36366 0.10636 0.89295 -0.44700
O 	O 	0.68568 0.30622 0.74937 -0.54400
O 	O 	0.54285 0.31056 0.86208 -0.41300
O 	O 	0.48162 0.12782 0.71357 -0.49200
O 	O 	0.46970 0.96315 0.63410 -0.30200
O 	O 	0.74769 0.15013 0.61919 -0.52700
O 	O 	0.70489 0.00789 0.52062 -0.43900
O 	O 	0.40468 0.34694 0.68904 -0.55800
O 	O 	0.36821 0.50462 0.60767 -0.44100
O 	O 	0.48119 0.18628 0.52060 -0.54700
O 	O 	0.40987 0.34838 0.45423 -0.44200
O 	O 	0.64745 0.39993 0.56980 -0.55100
O 	O 	0.86366 0.39364 0.60705 -0.41300
