data_crystal

_cell_length_a 9.88200
_cell_length_b 11.39830
_cell_length_c 14.61440
_cell_angle_alpha 91.32230
_cell_angle_beta  90.00000
_cell_angle_gamma 90.00000

_symmetry_space_group_name_	'P 1'
_symmetry_space_group_name_H-M	'P 1'

loop_
_symmetry_equiv_pos_as_xyz
  x,y,z

loop_
_atom_site_label
_atom_site_type_symbol
_atom_site_fract_x
_atom_site_fract_y
_atom_site_fract_z
_atom_site_charge
Fe	Fe	0.91847 0.75605 0.13196 1.24000
Fe	Fe	0.89465 0.26017 0.68717 1.23300
Fe	Fe	0.41847 0.74395 0.36804 1.20000
Fe	Fe	0.39465 0.23983 0.81283 1.21100
Fe	Fe	0.08153 0.24395 0.86804 1.15300
Fe	Fe	0.10535 0.73983 0.31283 1.19400
Fe	Fe	0.58153 0.25605 0.63196 1.19200
Fe	Fe	0.60535 0.76017 0.18717 1.21400
Fe	Fe	-0.00000 0.50000 -0.00000 1.12200
Fe	Fe	0.50000 -0.00000 0.50000 1.18600
Fe	Fe	-0.00000 0.00000 -0.00000 1.08900
Fe	Fe	0.50000 0.50000 0.50000 1.22500
H 	H 	0.75240 0.85970 0.36610 -0.09900
H 	H 	0.02500 0.47580 0.26550 -0.08900
H 	H 	0.61880 0.55870 0.03790 -0.07700
H 	H 	0.18800 0.98030 0.23280 -0.16800
H 	H 	0.16810 0.70000 0.93400 -0.13800
H 	H 	0.70010 0.99150 0.01070 -0.10200
H 	H 	0.25240 0.64030 0.13390 -0.13200
H 	H 	0.52500 0.02420 0.23450 -0.26500
H 	H 	0.11880 0.94130 0.46210 -0.11700
H 	H 	0.68800 0.51970 0.26720 -0.12300
H 	H 	0.66810 0.80000 0.56600 -0.08900
H 	H 	0.20010 0.50850 0.48930 -0.12200
H 	H 	0.24760 0.14030 0.63390 -0.14300
H 	H 	0.97500 0.52420 0.73450 -0.13300
H 	H 	0.38120 0.44130 0.96210 -0.14100
H 	H 	0.81200 0.01970 0.76720 -0.08800
H 	H 	0.83190 0.30000 0.06600 -0.07100
H 	H 	0.29990 0.00850 0.98930 -0.09400
H 	H 	0.74760 0.35970 0.86610 -0.10600
H 	H 	0.47500 0.97580 0.76550 0.04300
H 	H 	0.88120 0.05870 0.53790 -0.10000
H 	H 	0.31200 0.48030 0.73280 -0.13700
H 	H 	0.33190 0.20000 0.43400 -0.13200
H 	H 	0.79990 0.49150 0.51070 -0.08400
C 	C 	0.82260 0.83011 0.33001 0.49200
C 	C 	0.00810 0.51609 0.21209 0.34400
C 	C 	0.71000 0.57620 0.04550 0.32500
C 	C 	0.12950 0.95291 0.18721 0.65900
C 	C 	0.10810 0.74375 0.97015 0.67200
C 	C 	0.71680 0.93134 0.05114 0.47800
C 	C 	0.32260 0.66989 0.16999 0.50400
C 	C 	0.50810 0.98391 0.28791 0.79800
C 	C 	0.21000 0.92380 0.45450 0.50500
C 	C 	0.62950 0.54709 0.31279 0.51800
C 	C 	0.60810 0.75625 0.52985 0.50200
C 	C 	0.21680 0.56866 0.44886 0.50000
C 	C 	0.17740 0.16989 0.66999 0.51200
C 	C 	0.99190 0.48391 0.78791 0.66400
C 	C 	0.29000 0.42380 0.95450 0.68400
C 	C 	0.87050 0.04709 0.81279 0.37500
C 	C 	0.89190 0.25625 0.02985 0.33100
C 	C 	0.28320 0.06866 0.94886 0.48700
C 	C 	0.67740 0.33011 0.83001 0.49800
C 	C 	0.49190 0.01609 0.71209 0.21400
C 	C 	0.79000 0.07620 0.54550 0.50900
C 	C 	0.37050 0.45291 0.68721 0.52500
C 	C 	0.39190 0.24375 0.47015 0.52400
C 	C 	0.78320 0.43134 0.55114 0.47900
O 	O 	0.79637 0.80903 0.24623 -0.53200
O 	O 	0.93257 0.81509 0.36829 -0.37200
O 	O 	0.00102 0.62674 0.21881 -0.56000
O 	O 	0.99460 0.45693 0.14113 -0.31400
O 	O 	0.73921 0.65248 0.10611 -0.50600
O 	O 	0.79027 0.52223 0.99503 -0.26500
O 	O 	0.08163 0.85119 0.19668 -0.63000
O 	O 	0.10700 0.01926 0.12416 -0.58700
O 	O 	0.03008 0.68662 0.02303 -0.69200
O 	O 	0.11130 0.84997 0.96267 -0.43900
O 	O 	0.84029 0.89862 0.05983 -0.51300
O 	O 	0.61840 0.89098 0.09116 -0.43400
O 	O 	0.29637 0.69097 0.25377 -0.55900
O 	O 	0.43257 0.68491 0.13171 -0.45700
O 	O 	0.50102 0.87326 0.28119 -0.62400
O 	O 	0.49460 0.04307 0.35887 -0.56400
O 	O 	0.23921 0.84752 0.39389 -0.55700
O 	O 	0.29027 0.97777 0.50497 -0.40200
O 	O 	0.58163 0.64881 0.30332 -0.55800
O 	O 	0.60700 0.48074 0.37584 -0.44100
O 	O 	0.53008 0.81338 0.47697 -0.53800
O 	O 	0.61130 0.65003 0.53733 -0.44000
O 	O 	0.34029 0.60138 0.44017 -0.55600
O 	O 	0.11840 0.60902 0.40884 -0.46900
O 	O 	0.20363 0.19097 0.75377 -0.58500
O 	O 	0.06743 0.18491 0.63171 -0.51200
O 	O 	0.99898 0.37326 0.78119 -0.54900
O 	O 	0.00540 0.54307 0.85887 -0.52000
O 	O 	0.26079 0.34752 0.89389 -0.60200
O 	O 	0.20973 0.47777 0.00497 -0.57700
O 	O 	0.91837 0.14881 0.80332 -0.48500
O 	O 	0.89300 0.98074 0.87584 -0.26200
O 	O 	0.96992 0.31338 0.97697 -0.38200
O 	O 	0.88870 0.15003 0.03733 -0.41100
O 	O 	0.15971 0.10138 0.94017 -0.54800
O 	O 	0.38160 0.10902 0.90884 -0.44000
O 	O 	0.70363 0.30903 0.74623 -0.55700
O 	O 	0.56743 0.31509 0.86829 -0.42400
O 	O 	0.49898 0.12674 0.71881 -0.49000
O 	O 	0.50540 0.95693 0.64113 -0.29200
O 	O 	0.76079 0.15248 0.60611 -0.55400
O 	O 	0.70973 0.02223 0.49503 -0.45900
O 	O 	0.41837 0.35119 0.69668 -0.56700
O 	O 	0.39300 0.51926 0.62416 -0.44700
O 	O 	0.46992 0.18662 0.52303 -0.56500
O 	O 	0.38870 0.34997 0.46267 -0.46300
O 	O 	0.65971 0.39862 0.55983 -0.54400
O 	O 	0.88160 0.39098 0.59116 -0.40700
