data_crystal

_cell_length_a 12.70600
_cell_length_b 12.70600
_cell_length_c 23.81700
_cell_angle_alpha 90.00000
_cell_angle_beta  90.00000
_cell_angle_gamma 90.00000

_symmetry_space_group_name_	'P 1'
_symmetry_space_group_name_H-M	'P 1'

loop_
_symmetry_equiv_pos_as_xyz
  x,y,z

loop_
_atom_site_label
_atom_site_type_symbol
_atom_site_fract_x
_atom_site_fract_y
_atom_site_fract_z
_atom_site_charge
Zn	Zn	0.61758 0.00000 -0.00000 1.14500
Zn	Zn	0.38242 0.00000 -0.00000 1.13800
Zn	Zn	0.00000 0.61758 0.50000 1.16800
Zn	Zn	-0.00000 0.38242 0.50000 1.16000
Si	Si	0.50000 0.50000 0.75000 0.79400
Si	Si	0.50000 0.50000 0.25000 0.78000
H 	H 	0.65910 0.63360 0.80440 -0.00200
H 	H 	0.65760 0.76450 0.87140 0.09900
H 	H 	0.34090 0.36640 0.80440 -0.02200
H 	H 	0.34240 0.23550 0.87140 0.05200
H 	H 	0.36640 0.65910 0.30440 -0.00500
H 	H 	0.23550 0.65760 0.37140 0.06100
H 	H 	0.63360 0.34090 0.30440 -0.02100
H 	H 	0.76450 0.34240 0.37140 0.06800
H 	H 	0.34090 0.63360 0.19560 -0.02300
H 	H 	0.34240 0.76450 0.12860 0.06000
H 	H 	0.65910 0.36640 0.19560 -0.00600
H 	H 	0.65760 0.23550 0.12860 0.05300
H 	H 	0.63360 0.65910 0.69560 -0.00300
H 	H 	0.76450 0.65760 0.62860 0.09100
H 	H 	0.36640 0.34090 0.69560 -0.02300
H 	H 	0.23550 0.34240 0.62860 0.04200
H 	H 	0.34090 0.36640 0.19560 -0.02400
H 	H 	0.34240 0.23550 0.12860 0.03300
H 	H 	0.65910 0.63360 0.19560 -0.00400
H 	H 	0.65760 0.76450 0.12860 0.08100
H 	H 	0.63360 0.34090 0.69560 -0.02100
H 	H 	0.76450 0.34240 0.62860 0.07000
H 	H 	0.36640 0.65910 0.69560 -0.00500
H 	H 	0.23550 0.65760 0.62860 0.06300
H 	H 	0.65910 0.36640 0.80440 -0.00400
H 	H 	0.65760 0.23550 0.87140 0.07300
H 	H 	0.34090 0.63360 0.80440 -0.02000
H 	H 	0.34240 0.76450 0.87140 0.07800
H 	H 	0.36640 0.34090 0.30440 -0.02300
H 	H 	0.23550 0.34240 0.37140 0.04000
H 	H 	0.63360 0.65910 0.30440 -0.00300
H 	H 	0.76450 0.65760 0.37140 0.08900
C 	C 	0.59369 0.65927 0.81807 0.10700
C 	C 	0.59277 0.73692 0.85812 -0.09700
C 	C 	0.40631 0.34073 0.81807 0.08200
C 	C 	0.40723 0.26308 0.85812 -0.08800
C 	C 	0.34073 0.59369 0.31807 0.07300
C 	C 	0.26308 0.59277 0.35812 -0.07900
C 	C 	0.65927 0.40631 0.31807 0.09200
C 	C 	0.73692 0.40723 0.35812 -0.09400
C 	C 	0.40631 0.65927 0.18193 0.08700
C 	C 	0.40723 0.73692 0.14188 -0.09100
C 	C 	0.59369 0.34073 0.18193 0.06800
C 	C 	0.59277 0.26308 0.14188 -0.07600
C 	C 	0.65927 0.59369 0.68193 0.10000
C 	C 	0.73692 0.59277 0.64188 -0.09200
C 	C 	0.34073 0.40631 0.68193 0.07400
C 	C 	0.26308 0.40723 0.64188 -0.08300
C 	C 	0.40631 0.34073 0.18193 0.06500
C 	C 	0.40723 0.26308 0.14188 -0.07900
C 	C 	0.59369 0.65927 0.18193 0.09000
C 	C 	0.59277 0.73692 0.14188 -0.08800
C 	C 	0.65927 0.40631 0.68193 0.09700
C 	C 	0.73692 0.40723 0.64188 -0.09500
C 	C 	0.34073 0.59369 0.68193 0.07800
C 	C 	0.26308 0.59277 0.64188 -0.08000
C 	C 	0.59369 0.34073 0.81807 0.08500
C 	C 	0.59277 0.26308 0.85812 -0.08500
C 	C 	0.40631 0.65927 0.81807 0.10300
C 	C 	0.40723 0.73692 0.85812 -0.10000
C 	C 	0.34073 0.40631 0.31807 0.07000
C 	C 	0.26308 0.40723 0.35812 -0.08100
C 	C 	0.65927 0.59369 0.31807 0.09600
C 	C 	0.73692 0.59277 0.35812 -0.09100
C 	C 	0.50000 0.61743 0.79711 -0.28300
C 	C 	0.50000 0.77550 0.87939 -0.00000
C 	C 	0.50000 0.85880 0.92364 0.35200
C 	C 	0.50000 0.38257 0.79711 -0.27900
C 	C 	0.50000 0.22450 0.87939 -0.03700
C 	C 	0.50000 0.14120 0.92364 0.36100
C 	C 	0.38257 0.50000 0.29711 -0.27300
C 	C 	0.22450 0.50000 0.37939 -0.05500
C 	C 	0.14120 0.50000 0.42364 0.36800
C 	C 	0.61743 0.50000 0.29711 -0.27700
C 	C 	0.77550 0.50000 0.37939 -0.01600
C 	C 	0.85880 0.50000 0.42364 0.35800
C 	C 	0.50000 0.61743 0.20289 -0.27600
C 	C 	0.50000 0.77550 0.12061 -0.02700
C 	C 	0.50000 0.85880 0.07636 0.36000
C 	C 	0.50000 0.38257 0.20289 -0.27200
C 	C 	0.50000 0.22450 0.12061 -0.06600
C 	C 	0.50000 0.14120 0.07636 0.37000
C 	C 	0.61743 0.50000 0.70289 -0.28100
C 	C 	0.77550 0.50000 0.62061 -0.01300
C 	C 	0.85880 0.50000 0.57636 0.35800
C 	C 	0.38257 0.50000 0.70289 -0.27700
C 	C 	0.22450 0.50000 0.62061 -0.05200
C 	C 	0.14120 0.50000 0.57636 0.36800
O 	O 	0.58849 0.88956 0.94140 -0.38900
O 	O 	0.41151 0.11044 0.94140 -0.47900
O 	O 	0.11044 0.58849 0.44140 -0.49800
O 	O 	0.88956 0.41151 0.44140 -0.43400
O 	O 	0.41151 0.88956 0.05860 -0.45500
O 	O 	0.58849 0.11044 0.05860 -0.51800
O 	O 	0.88956 0.58849 0.55860 -0.41800
O 	O 	0.11044 0.41151 0.55860 -0.51300
O 	O 	0.41151 0.11044 0.05860 -0.53400
O 	O 	0.58849 0.88956 0.05860 -0.43900
O 	O 	0.88956 0.41151 0.55860 -0.43300
O 	O 	0.11044 0.58849 0.55860 -0.49700
O 	O 	0.58849 0.11044 0.94140 -0.46300
O 	O 	0.41151 0.88956 0.94140 -0.40500
O 	O 	0.11044 0.41151 0.44140 -0.51400
O 	O 	0.88956 0.58849 0.44140 -0.41900
