data_crystal

_cell_length_a 14.81120
_cell_length_b 14.81120
_cell_length_c 16.55890
_cell_angle_alpha 102.82600
_cell_angle_beta  102.82600
_cell_angle_gamma 115.99400

_symmetry_space_group_name_	'P 1'
_symmetry_space_group_name_H-M	'P 1'

loop_
_symmetry_equiv_pos_as_xyz
  x,y,z

loop_
_atom_site_label
_atom_site_type_symbol
_atom_site_fract_x
_atom_site_fract_y
_atom_site_fract_z
_atom_site_charge
Zn	Zn	0.04722 0.43438 0.93619 1.21300
Zn	Zn	0.56562 0.95278 0.56381 1.21600
Zn	Zn	0.95278 0.56562 0.06381 1.21300
Zn	Zn	0.43438 0.04722 0.43619 1.21600
Zn	Zn	0.82930 0.17070 0.75000 1.23600
Zn	Zn	0.17070 0.82930 0.25000 1.23600
H 	H 	0.99520 0.04500 0.83590 0.01800
H 	H 	0.09190 0.95970 0.84900 0.10300
H 	H 	0.36550 0.24290 0.92040 0.10500
H 	H 	0.26660 0.32640 0.90460 0.00100
H 	H 	0.62770 0.10530 0.91300 0.01500
H 	H 	0.49250 0.07730 0.97110 0.10700
H 	H 	0.30510 0.06090 0.74560 0.10700
H 	H 	0.43800 0.08580 0.68730 -0.01100
H 	H 	0.12290 0.83630 0.03390 0.01600
H 	H 	0.20630 0.99730 0.01190 0.12300
H 	H 	0.29930 0.86190 0.83430 0.11200
H 	H 	0.22220 0.70440 0.86170 -0.00100
H 	H 	0.95500 0.00480 0.66410 0.00900
H 	H 	0.04030 0.90810 0.65100 0.10700
H 	H 	0.75710 0.63450 0.57960 0.10700
H 	H 	0.67360 0.73340 0.59540 -0.00100
H 	H 	0.89470 0.37230 0.58700 0.01300
H 	H 	0.92270 0.50750 0.52890 0.10600
H 	H 	0.93910 0.69490 0.75440 0.10800
H 	H 	0.91420 0.56200 0.81270 -0.01000
H 	H 	0.16370 0.87710 0.46610 0.00400
H 	H 	0.00270 0.79370 0.48810 0.11400
H 	H 	0.13810 0.70070 0.66570 0.11300
H 	H 	0.29560 0.77780 0.63830 -0.00300
H 	H 	0.00480 0.95500 0.16410 0.01800
H 	H 	0.90810 0.04030 0.15100 0.10300
H 	H 	0.63450 0.75710 0.07960 0.10500
H 	H 	0.73340 0.67360 0.09540 0.00100
H 	H 	0.37230 0.89470 0.08700 0.01500
H 	H 	0.50750 0.92270 0.02890 0.10700
H 	H 	0.69490 0.93910 0.25440 0.10700
H 	H 	0.56200 0.91420 0.31270 -0.01100
H 	H 	0.87710 0.16370 0.96610 0.01600
H 	H 	0.79370 0.00270 0.98810 0.12300
H 	H 	0.70070 0.13810 0.16570 0.11200
H 	H 	0.77780 0.29560 0.13830 -0.00100
H 	H 	0.04500 0.99520 0.33590 0.00900
H 	H 	0.95970 0.09190 0.34900 0.10700
H 	H 	0.24290 0.36550 0.42040 0.10700
H 	H 	0.32640 0.26660 0.40460 -0.00100
H 	H 	0.10530 0.62770 0.41300 0.01300
H 	H 	0.07730 0.49250 0.47110 0.10600
H 	H 	0.06090 0.30510 0.24560 0.10800
H 	H 	0.08580 0.43800 0.18730 -0.01000
H 	H 	0.83630 0.12290 0.53390 0.00400
H 	H 	0.99730 0.20630 0.51190 0.11400
H 	H 	0.86190 0.29930 0.33430 0.11300
H 	H 	0.70440 0.22220 0.36170 -0.00300
C 	C 	0.05438 0.24702 0.86190 0.39100
C 	C 	0.12064 0.19496 0.86960 -0.17400
C 	C 	0.06978 0.08482 0.85290 0.09000
C 	C 	0.12770 0.03350 0.86110 -0.20100
C 	C 	0.23990 0.09190 0.88760 0.17100
C 	C 	0.29099 0.20281 0.90350 -0.20400
C 	C 	0.23163 0.25297 0.89420 0.10800
C 	C 	0.63157 0.11023 0.75440 0.39300
C 	C 	0.54609 0.09691 0.79380 -0.17600
C 	C 	0.56264 0.09536 0.87910 0.10800
C 	C 	0.48146 0.07874 0.91400 -0.20600
C 	C 	0.38471 0.06449 0.86390 0.17600
C 	C 	0.36927 0.06853 0.77890 -0.21200
C 	C 	0.44903 0.08397 0.74430 0.11800
C 	C 	0.10680 0.64960 0.96250 0.43900
C 	C 	0.16200 0.75280 0.94890 -0.19400
C 	C 	0.15850 0.84150 0.99390 0.11400
C 	C 	0.20726 0.93774 0.98010 -0.22700
C 	C 	0.25821 0.94479 0.91770 0.18400
C 	C 	0.26385 0.85715 0.87440 -0.22400
C 	C 	0.21690 0.76230 0.89040 0.12800
C 	C 	0.75298 0.94562 0.63810 0.40100
C 	C 	0.80504 0.87936 0.63040 -0.18300
C 	C 	0.91518 0.93022 0.64710 0.10800
C 	C 	0.96650 0.87230 0.63890 -0.21100
C 	C 	0.90810 0.76010 0.61240 0.17700
C 	C 	0.79719 0.70901 0.59650 -0.21000
C 	C 	0.74703 0.76837 0.60580 0.11600
C 	C 	0.88977 0.36843 0.74560 0.39300
C 	C 	0.90309 0.45391 0.70620 -0.17600
C 	C 	0.90464 0.43736 0.62090 0.10800
C 	C 	0.92126 0.51854 0.58600 -0.20700
C 	C 	0.93551 0.61529 0.63610 0.17600
C 	C 	0.93147 0.63073 0.72110 -0.21200
C 	C 	0.91603 0.55097 0.75570 0.11900
C 	C 	0.35040 0.89320 0.53750 0.45400
C 	C 	0.24720 0.83800 0.55110 -0.20400
C 	C 	0.15850 0.84150 0.50610 0.13200
C 	C 	0.06226 0.79274 0.51990 -0.21900
C 	C 	0.05521 0.74179 0.58230 0.18400
C 	C 	0.14285 0.73615 0.62560 -0.22700
C 	C 	0.23770 0.78310 0.60960 0.13400
C 	C 	0.94562 0.75298 0.13810 0.39100
C 	C 	0.87936 0.80504 0.13040 -0.17400
C 	C 	0.93022 0.91518 0.14710 0.09000
C 	C 	0.87230 0.96650 0.13890 -0.20100
C 	C 	0.76010 0.90810 0.11240 0.17100
C 	C 	0.70901 0.79719 0.09650 -0.20400
C 	C 	0.76837 0.74703 0.10580 0.10800
C 	C 	0.36843 0.88977 0.24560 0.39300
C 	C 	0.45391 0.90309 0.20620 -0.17600
C 	C 	0.43736 0.90464 0.12090 0.10800
C 	C 	0.51854 0.92126 0.08600 -0.20600
C 	C 	0.61529 0.93551 0.13610 0.17600
C 	C 	0.63073 0.93147 0.22110 -0.21200
C 	C 	0.55097 0.91603 0.25570 0.11800
C 	C 	0.89320 0.35040 0.03750 0.43900
C 	C 	0.83800 0.24720 0.05110 -0.19400
C 	C 	0.84150 0.15850 0.00610 0.11400
C 	C 	0.79274 0.06226 0.01990 -0.22700
C 	C 	0.74179 0.05521 0.08230 0.18400
C 	C 	0.73615 0.14285 0.12560 -0.22400
C 	C 	0.78310 0.23770 0.10960 0.12800
C 	C 	0.24702 0.05438 0.36190 0.40100
C 	C 	0.19496 0.12064 0.36960 -0.18300
C 	C 	0.08482 0.06978 0.35290 0.10800
C 	C 	0.03350 0.12770 0.36110 -0.21100
C 	C 	0.09190 0.23990 0.38760 0.17700
C 	C 	0.20281 0.29099 0.40350 -0.21000
C 	C 	0.25297 0.23163 0.39420 0.11600
C 	C 	0.11023 0.63157 0.25440 0.39300
C 	C 	0.09691 0.54609 0.29380 -0.17600
C 	C 	0.09536 0.56264 0.37910 0.10800
C 	C 	0.07874 0.48146 0.41400 -0.20700
C 	C 	0.06449 0.38471 0.36390 0.17600
C 	C 	0.06853 0.36927 0.27890 -0.21200
C 	C 	0.08397 0.44903 0.24430 0.11900
C 	C 	0.64960 0.10680 0.46250 0.45400
C 	C 	0.75280 0.16200 0.44890 -0.20400
C 	C 	0.84150 0.15850 0.49390 0.13200
C 	C 	0.93774 0.20726 0.48010 -0.21900
C 	C 	0.94479 0.25821 0.41770 0.18400
C 	C 	0.85715 0.26385 0.37440 -0.22700
C 	C 	0.76230 0.21690 0.39040 0.13400
N 	N 	0.30030 0.04110 0.89860 -0.19400
N 	N 	0.95890 0.69970 0.60140 -0.19500
N 	N 	0.69970 0.95890 0.10140 -0.19400
N 	N 	0.04110 0.30030 0.39860 -0.19500
O 	O 	0.95446 0.18774 0.83940 -0.47400
O 	O 	0.10258 0.34822 0.88000 -0.48100
O 	O 	0.72235 0.13805 0.80650 -0.47000
O 	O 	0.60994 0.09446 0.67290 -0.48000
O 	O 	0.04720 0.64220 0.00710 -0.53100
O 	O 	0.12020 0.57500 0.92620 -0.50200
O 	O 	0.81226 0.04554 0.66060 -0.48000
O 	O 	0.65178 0.89742 0.62000 -0.48100
O 	O 	0.86195 0.27765 0.69350 -0.47000
O 	O 	0.90554 0.39006 0.82710 -0.47800
O 	O 	0.35780 0.95280 0.49290 -0.54300
O 	O 	0.42500 0.87980 0.57380 -0.50300
O 	O 	0.04554 0.81226 0.16060 -0.47400
O 	O 	0.89742 0.65178 0.12000 -0.48100
O 	O 	0.27765 0.86195 0.19350 -0.47000
O 	O 	0.39006 0.90554 0.32710 -0.48000
O 	O 	0.95280 0.35780 0.99290 -0.53100
O 	O 	0.87980 0.42500 0.07380 -0.50200
O 	O 	0.18774 0.95446 0.33940 -0.48000
O 	O 	0.34822 0.10258 0.38000 -0.48100
O 	O 	0.13805 0.72235 0.30650 -0.47000
O 	O 	0.09446 0.60994 0.17290 -0.47800
O 	O 	0.64220 0.04720 0.50710 -0.54300
O 	O 	0.57500 0.12020 0.42620 -0.50300
