data_crystal

_cell_length_a 6.88900
_cell_length_b 11.60600
_cell_length_c 23.85100
_cell_angle_alpha 90.00000
_cell_angle_beta  90.00000
_cell_angle_gamma 96.08200

_symmetry_space_group_name_	'P 1'
_symmetry_space_group_name_H-M	'P 1'

loop_
_symmetry_equiv_pos_as_xyz
  x,y,z

loop_
_atom_site_label
_atom_site_type_symbol
_atom_site_fract_x
_atom_site_fract_y
_atom_site_fract_z
_atom_site_charge
Zn	Zn	0.13126 0.14180 0.48184 1.22000
Zn	Zn	0.86874 0.35820 0.98184 1.22100
Zn	Zn	0.86874 0.85820 0.51815 1.22000
Zn	Zn	0.13126 0.64180 0.01815 1.22100
H 	H 	0.52140 0.44640 0.58550 0.12400
H 	H 	0.84320 0.50780 0.58660 0.04900
H 	H 	0.14960 0.60820 0.57320 0.05200
H 	H 	0.56990 0.25860 0.45000 0.03500
H 	H 	0.22530 0.31970 0.57720 -0.01000
H 	H 	0.63860 0.31150 0.69940 0.06900
H 	H 	0.84070 0.26320 0.62730 0.02400
H 	H 	0.44180 0.99990 0.58230 0.02600
H 	H 	0.23930 0.04700 0.65490 0.07200
H 	H 	0.51080 0.28890 0.78290 0.06800
H 	H 	0.31620 0.32900 0.85830 0.04100
H 	H 	0.83880 0.18570 0.77630 0.03800
H 	H 	0.03220 0.14340 0.70100 0.05900
H 	H 	0.47860 0.05360 0.08550 0.12300
H 	H 	0.15680 0.99220 0.08660 0.04700
H 	H 	0.85040 0.89180 0.07320 0.05200
H 	H 	0.43010 0.24140 0.95000 0.03600
H 	H 	0.77470 0.18030 0.07720 -0.00900
H 	H 	0.36140 0.18850 0.19940 0.07000
H 	H 	0.15930 0.23680 0.12730 0.02300
H 	H 	0.55820 0.50010 0.08230 0.02500
H 	H 	0.76070 0.45300 0.15490 0.07400
H 	H 	0.48920 0.21110 0.28290 0.06500
H 	H 	0.68380 0.17100 0.35830 0.04400
H 	H 	0.16120 0.31430 0.27630 0.04400
H 	H 	0.96780 0.35660 0.20100 0.05600
H 	H 	0.47860 0.55360 0.41450 0.12300
H 	H 	0.15680 0.49220 0.41340 0.04800
H 	H 	0.85040 0.39180 0.42680 0.05200
H 	H 	0.43010 0.74140 0.55000 0.03500
H 	H 	0.77470 0.68030 0.42280 -0.01000
H 	H 	0.36140 0.68850 0.30060 0.06900
H 	H 	0.15930 0.73680 0.37270 0.02400
H 	H 	0.55820 0.00010 0.41770 0.02600
H 	H 	0.76070 0.95300 0.34510 0.07200
H 	H 	0.48920 0.71110 0.21710 0.06800
H 	H 	0.68380 0.67100 0.14170 0.04100
H 	H 	0.16120 0.81430 0.22370 0.03800
H 	H 	0.96780 0.85660 0.29900 0.05900
H 	H 	0.52140 0.94640 0.91450 0.12300
H 	H 	0.84320 0.00780 0.91340 0.04700
H 	H 	0.14960 0.10820 0.92680 0.05200
H 	H 	0.56990 0.75860 0.05000 0.03600
H 	H 	0.22530 0.81970 0.92280 -0.00900
H 	H 	0.63860 0.81150 0.80060 0.07000
H 	H 	0.84070 0.76320 0.87270 0.02300
H 	H 	0.44180 0.49990 0.91770 0.02500
H 	H 	0.23930 0.54700 0.84510 0.07400
H 	H 	0.51080 0.78890 0.71710 0.06500
H 	H 	0.31620 0.82900 0.64170 0.04400
H 	H 	0.83880 0.68570 0.72370 0.04400
H 	H 	0.03220 0.64340 0.79900 0.05600
C 	C 	0.81430 0.43900 0.50803 0.00000
C 	C 	0.90620 0.50430 0.55130 -0.05000
C 	C 	0.08890 0.56410 0.54324 -0.05900
C 	C 	0.62100 0.37530 0.51470 0.06200
C 	C 	0.52210 0.29090 0.48320 -0.01400
C 	C 	0.33340 0.32380 0.55226 0.12100
C 	C 	0.41850 0.18280 0.68570 0.05300
C 	C 	0.59840 0.24700 0.67605 -0.11600
C 	C 	0.71880 0.21830 0.63306 0.05300
C 	C 	0.66410 0.12520 0.59845 -0.13500
C 	C 	0.48310 0.06260 0.60654 0.04200
C 	C 	0.36240 0.09100 0.64976 -0.11500
C 	C 	0.79920 0.09110 0.55350 0.39400
C 	C 	0.29300 0.21040 0.73363 0.02200
C 	C 	0.37400 0.26700 0.78130 -0.08300
C 	C 	0.25770 0.29150 0.82617 0.01600
C 	C 	0.05700 0.26210 0.82503 -0.08400
C 	C 	0.97580 0.20670 0.77788 0.00400
C 	C 	0.09150 0.18140 0.73293 -0.07700
C 	C 	0.93260 0.28950 0.87415 0.31500
C 	C 	0.18570 0.06100 0.00803 -0.00200
C 	C 	0.09380 0.99570 0.05130 -0.04500
C 	C 	0.91110 0.93590 0.04324 -0.06200
C 	C 	0.37900 0.12470 0.01470 0.06300
C 	C 	0.47790 0.20910 0.98320 -0.01500
C 	C 	0.66660 0.17620 0.05226 0.12200
C 	C 	0.58150 0.31720 0.18570 0.05800
C 	C 	0.40160 0.25300 0.17605 -0.12000
C 	C 	0.28120 0.28170 0.13306 0.05600
C 	C 	0.33590 0.37480 0.09845 -0.13800
C 	C 	0.51690 0.43740 0.10654 0.04600
C 	C 	0.63760 0.40900 0.14976 -0.11800
C 	C 	0.20080 0.40890 0.05350 0.39500
C 	C 	0.70700 0.28960 0.23363 0.01500
C 	C 	0.62600 0.23300 0.28130 -0.07400
C 	C 	0.74230 0.20850 0.32617 0.00600
C 	C 	0.94300 0.23790 0.32503 -0.07000
C 	C 	0.02420 0.29330 0.27788 -0.01300
C 	C 	0.90850 0.31860 0.23293 -0.06400
C 	C 	0.06740 0.21050 0.37415 0.30600
C 	C 	0.18570 0.56100 0.49197 0.00000
C 	C 	0.09380 0.49570 0.44870 -0.05000
C 	C 	0.91110 0.43590 0.45676 -0.05900
C 	C 	0.37900 0.62470 0.48530 0.06200
C 	C 	0.47790 0.70910 0.51680 -0.01400
C 	C 	0.66660 0.67620 0.44774 0.12100
C 	C 	0.58150 0.81720 0.31430 0.05300
C 	C 	0.40160 0.75300 0.32395 -0.11600
C 	C 	0.28120 0.78170 0.36694 0.05300
C 	C 	0.33590 0.87480 0.40155 -0.13500
C 	C 	0.51690 0.93740 0.39346 0.04200
C 	C 	0.63760 0.90900 0.35024 -0.11500
C 	C 	0.20080 0.90890 0.44650 0.39400
C 	C 	0.70700 0.78960 0.26637 0.02200
C 	C 	0.62600 0.73300 0.21870 -0.08300
C 	C 	0.74230 0.70850 0.17383 0.01600
C 	C 	0.94300 0.73790 0.17497 -0.08400
C 	C 	0.02420 0.79330 0.22212 0.00400
C 	C 	0.90850 0.81860 0.26707 -0.07700
C 	C 	0.06740 0.71050 0.12585 0.31500
C 	C 	0.81430 0.93900 0.99197 -0.00200
C 	C 	0.90620 0.00430 0.94870 -0.04500
C 	C 	0.08890 0.06410 0.95676 -0.06200
C 	C 	0.62100 0.87530 0.98530 0.06300
C 	C 	0.52210 0.79090 0.01680 -0.01500
C 	C 	0.33340 0.82380 0.94774 0.12200
C 	C 	0.41850 0.68280 0.81430 0.05800
C 	C 	0.59840 0.74700 0.82395 -0.12000
C 	C 	0.71880 0.71830 0.86694 0.05600
C 	C 	0.66410 0.62520 0.90155 -0.13800
C 	C 	0.48310 0.56260 0.89346 0.04600
C 	C 	0.36240 0.59100 0.85024 -0.11800
C 	C 	0.79920 0.59110 0.94650 0.39500
C 	C 	0.29300 0.71040 0.76637 0.01500
C 	C 	0.37400 0.76700 0.71870 -0.07400
C 	C 	0.25770 0.79150 0.67383 0.00600
C 	C 	0.05700 0.76210 0.67497 -0.07000
C 	C 	0.97580 0.70670 0.72212 -0.01300
C 	C 	0.09150 0.68140 0.76707 -0.06400
C 	C 	0.93260 0.78950 0.62585 0.30600
N 	N 	0.49690 0.39540 0.55843 -0.20400
N 	N 	0.34200 0.25950 0.50686 -0.25900
N 	N 	0.50310 0.10460 0.05843 -0.20400
N 	N 	0.65800 0.24050 0.00686 -0.25800
N 	N 	0.50310 0.60460 0.44157 -0.20400
N 	N 	0.65800 0.74050 0.49314 -0.25900
N 	N 	0.49690 0.89540 0.94157 -0.20400
N 	N 	0.34200 0.75950 0.99314 -0.25800
O 	O 	0.95890 0.15370 0.54723 -0.48400
O 	O 	0.74730 0.00138 0.52499 -0.50300
O 	O 	0.02390 0.34180 0.91492 -0.45700
O 	O 	0.75340 0.26150 0.87321 -0.31100
O 	O 	0.04110 0.34630 0.04723 -0.48600
O 	O 	0.25270 0.49862 0.02499 -0.50400
O 	O 	0.97610 0.15820 0.41492 -0.45300
O 	O 	0.24660 0.23850 0.37321 -0.30900
O 	O 	0.04110 0.84630 0.45277 -0.48400
O 	O 	0.25270 0.99862 0.47501 -0.50300
O 	O 	0.97610 0.65820 0.08508 -0.45700
O 	O 	0.24660 0.73850 0.12679 -0.31100
O 	O 	0.95890 0.65370 0.95277 -0.48600
O 	O 	0.74730 0.50138 0.97501 -0.50400
O 	O 	0.02390 0.84180 0.58508 -0.45300
O 	O 	0.75340 0.76150 0.62679 -0.30900
