data_crystal

_cell_length_a 6.93140
_cell_length_b 12.38200
_cell_length_c 27.73800
_cell_angle_alpha 96.64100
_cell_angle_beta  91.23100
_cell_angle_gamma 104.22100

_symmetry_space_group_name_	'P 1'
_symmetry_space_group_name_H-M	'P 1'

loop_
_symmetry_equiv_pos_as_xyz
  x,y,z

loop_
_atom_site_label
_atom_site_type_symbol
_atom_site_fract_x
_atom_site_fract_y
_atom_site_fract_z
_atom_site_charge
Zn	Zn	0.29653 0.42769 0.49637 1.20300
Zn	Zn	0.01110 0.63517 0.99101 1.19900
Zn	Zn	0.70347 0.57231 0.50363 1.20300
Zn	Zn	0.98890 0.36483 0.00899 1.19900
H 	H 	0.95390 0.38430 0.60240 -0.01500
H 	H 	0.04010 0.27570 0.65880 0.12900
H 	H 	0.46080 0.10950 0.66020 0.14100
H 	H 	0.37760 0.21390 0.60330 -0.01800
H 	H 	0.09140 0.13990 0.69820 0.03600
H 	H 	0.01360 0.21200 0.74200 0.04300
H 	H 	0.91050 0.91810 0.69560 0.03500
H 	H 	0.97990 0.87540 0.74390 0.04400
H 	H 	0.53810 0.93830 0.68000 0.14300
H 	H 	0.62280 0.80830 0.62280 -0.01700
H 	H 	0.04980 0.62910 0.60860 -0.01700
H 	H 	0.96310 0.76070 0.66450 0.13100
H 	H 	0.29630 0.12030 0.77220 0.03800
H 	H 	0.19850 0.03080 0.80800 0.04200
H 	H 	0.12490 0.35520 0.87730 0.13100
H 	H 	0.38240 0.47660 0.92750 0.00400
H 	H 	0.74280 0.27140 0.89310 -0.01500
H 	H 	0.48930 0.15210 0.84080 0.11700
H 	H 	0.68530 0.98080 0.75880 0.03600
H 	H 	0.77430 0.08670 0.79910 0.04600
H 	H 	0.44700 0.93550 0.80750 0.11600
H 	H 	0.19750 0.83850 0.85310 0.00400
H 	H 	0.60480 0.71420 0.92040 0.01200
H 	H 	0.84920 0.80540 0.87280 0.14000
H 	H 	0.04610 0.61570 0.39760 -0.01500
H 	H 	0.95990 0.72430 0.34120 0.12900
H 	H 	0.53920 0.89050 0.33980 0.14100
H 	H 	0.62240 0.78610 0.39670 -0.01800
H 	H 	0.90860 0.86010 0.30180 0.03600
H 	H 	0.98640 0.78800 0.25800 0.04300
H 	H 	0.08950 0.08190 0.30440 0.03500
H 	H 	0.02010 0.12460 0.25610 0.04400
H 	H 	0.46190 0.06170 0.32000 0.14300
H 	H 	0.37720 0.19170 0.37720 -0.01700
H 	H 	0.95020 0.37090 0.39140 -0.01700
H 	H 	0.03690 0.23930 0.33550 0.13100
H 	H 	0.70370 0.87970 0.22780 0.03800
H 	H 	0.80150 0.96920 0.19200 0.04200
H 	H 	0.87510 0.64480 0.12270 0.13100
H 	H 	0.61760 0.52340 0.07250 0.00400
H 	H 	0.25720 0.72860 0.10690 -0.01500
H 	H 	0.51070 0.84790 0.15920 0.11700
H 	H 	0.31470 0.01920 0.24120 0.03600
H 	H 	0.22570 0.91330 0.20090 0.04600
H 	H 	0.55300 0.06450 0.19250 0.11600
H 	H 	0.80250 0.16150 0.14690 0.00400
H 	H 	0.39520 0.28580 0.07960 0.01200
H 	H 	0.15080 0.19460 0.12720 0.14000
C 	C 	0.60180 0.37840 0.56060 0.47000
C 	C 	0.65690 0.30990 0.59660 -0.23800
C 	C 	0.85330 0.32750 0.61380 0.16900
C 	C 	0.90500 0.26350 0.64770 -0.27700
C 	C 	0.76000 0.18290 0.66470 0.28700
C 	C 	0.56170 0.16510 0.64810 -0.28000
C 	C 	0.51270 0.22720 0.61460 0.18200
C 	C 	0.98670 0.13770 0.72200 0.02000
C 	C 	0.98810 0.04730 0.75400 0.00800
C 	C 	0.00860 0.93770 0.72370 0.01900
C 	C 	0.23950 0.86360 0.67630 0.28600
C 	C 	0.43790 0.87620 0.66470 -0.27900
C 	C 	0.48780 0.79830 0.63110 0.17900
C 	C 	0.34760 0.70670 0.60930 -0.23100
C 	C 	0.14910 0.69300 0.62270 0.16800
C 	C 	0.09750 0.77090 0.65580 -0.28200
C 	C 	0.40220 0.62590 0.57040 0.46700
C 	C 	0.17600 0.09160 0.79010 0.01900
C 	C 	0.29040 0.24650 0.85280 0.26700
C 	C 	0.25220 0.33980 0.87970 -0.26000
C 	C 	0.40450 0.41020 0.91030 0.13700
C 	C 	0.58400 0.38660 0.91610 -0.18900
C 	C 	0.61770 0.28900 0.88950 0.12900
C 	C 	0.46830 0.21860 0.85820 -0.25200
C 	C 	0.75500 0.46270 0.94730 0.37800
C 	C 	0.80080 0.01800 0.78150 0.01900
C 	C 	0.67110 0.88440 0.83800 0.25800
C 	C 	0.47900 0.89150 0.83090 -0.24300
C 	C 	0.33110 0.83390 0.85810 0.12200
C 	C 	0.37640 0.77000 0.89250 -0.16300
C 	C 	0.57240 0.75960 0.89770 0.12200
C 	C 	0.71760 0.81470 0.87000 -0.23900
C 	C 	0.22220 0.71850 0.92580 0.33500
C 	C 	0.39820 0.62160 0.43940 0.47000
C 	C 	0.34310 0.69010 0.40340 -0.23800
C 	C 	0.14670 0.67250 0.38620 0.16900
C 	C 	0.09500 0.73650 0.35230 -0.27700
C 	C 	0.24000 0.81710 0.33530 0.28700
C 	C 	0.43830 0.83490 0.35190 -0.28000
C 	C 	0.48730 0.77280 0.38540 0.18200
C 	C 	0.01330 0.86230 0.27800 0.02000
C 	C 	0.01190 0.95270 0.24600 0.00800
C 	C 	0.99140 0.06230 0.27630 0.01900
C 	C 	0.76050 0.13640 0.32370 0.28600
C 	C 	0.56210 0.12380 0.33530 -0.27900
C 	C 	0.51220 0.20170 0.36890 0.17900
C 	C 	0.65240 0.29330 0.39070 -0.23100
C 	C 	0.85090 0.30700 0.37730 0.16800
C 	C 	0.90250 0.22910 0.34420 -0.28200
C 	C 	0.59780 0.37410 0.42960 0.46700
C 	C 	0.82400 0.90840 0.20990 0.01900
C 	C 	0.70960 0.75350 0.14720 0.26700
C 	C 	0.74780 0.66020 0.12030 -0.26000
C 	C 	0.59550 0.58980 0.08970 0.13700
C 	C 	0.41600 0.61340 0.08390 -0.18900
C 	C 	0.38230 0.71100 0.11050 0.12900
C 	C 	0.53170 0.78140 0.14180 -0.25200
C 	C 	0.24500 0.53730 0.05270 0.37800
C 	C 	0.19920 0.98200 0.21850 0.01900
C 	C 	0.32890 0.11560 0.16200 0.25800
C 	C 	0.52100 0.10850 0.16910 -0.24300
C 	C 	0.66890 0.16610 0.14190 0.12200
C 	C 	0.62360 0.23000 0.10750 -0.16300
C 	C 	0.42760 0.24040 0.10230 0.12200
C 	C 	0.28240 0.18530 0.13000 -0.23900
C 	C 	0.77780 0.28150 0.07420 0.33500
O 	O 	0.42610 0.35370 0.54440 -0.50300
O 	O 	0.73260 0.45680 0.54810 -0.50100
O 	O 	0.79380 0.11270 0.69720 -0.25600
O 	O 	0.20430 0.95170 0.70680 -0.25600
O 	O 	0.27200 0.54600 0.55250 -0.50500
O 	O 	0.58070 0.65000 0.55820 -0.49700
O 	O 	0.13380 0.18080 0.82320 -0.24200
O 	O 	0.73170 0.55300 0.96740 -0.46000
O 	O 	0.91940 0.43330 0.95070 -0.53400
O 	O 	0.83230 0.94310 0.81540 -0.23900
O 	O 	0.04570 0.71680 0.91790 -0.38000
O 	O 	0.27830 0.67720 0.96210 -0.44300
O 	O 	0.57390 0.64630 0.45560 -0.50300
O 	O 	0.26740 0.54320 0.45190 -0.50100
O 	O 	0.20620 0.88730 0.30280 -0.25600
O 	O 	0.79570 0.04830 0.29320 -0.25600
O 	O 	0.72800 0.45400 0.44750 -0.50500
O 	O 	0.41930 0.35000 0.44180 -0.49700
O 	O 	0.86620 0.81920 0.17680 -0.24200
O 	O 	0.26830 0.44700 0.03260 -0.46000
O 	O 	0.08060 0.56670 0.04930 -0.53400
O 	O 	0.16770 0.05690 0.18460 -0.23900
O 	O 	0.95430 0.28320 0.08210 -0.38000
O 	O 	0.72170 0.32280 0.03790 -0.44300
