data_crystal

_cell_length_a 8.94000
_cell_length_b 12.48000
_cell_length_c 14.02000
_cell_angle_alpha 90.00000
_cell_angle_beta  90.00000
_cell_angle_gamma 91.73000

_symmetry_space_group_name_	'P 1'
_symmetry_space_group_name_H-M	'P 1'

loop_
_symmetry_equiv_pos_as_xyz
  x,y,z

loop_
_atom_site_label
_atom_site_type_symbol
_atom_site_fract_x
_atom_site_fract_y
_atom_site_fract_z
_atom_site_charge
Zn	Zn	0.75000 0.25000 0.32633 1.24200
Zn	Zn	0.75000 0.25000 0.83874 1.24400
Zn	Zn	0.25000 0.75000 0.67367 1.24200
Zn	Zn	0.25000 0.75000 0.16126 1.24400
H 	H 	0.44100 0.46460 0.15250 0.13700
H 	H 	0.45110 0.35570 0.09390 0.14200
H 	H 	0.62220 0.54680 0.05560 0.08100
H 	H 	0.02580 0.49760 0.66220 0.14100
H 	H 	0.06480 0.38070 0.62470 0.15000
H 	H 	0.84910 0.50870 0.53260 0.08900
H 	H 	0.05900 0.03540 0.15250 0.13000
H 	H 	0.04890 0.14430 0.09390 0.13500
H 	H 	0.87780 0.95320 0.05560 0.07700
H 	H 	0.47420 0.00240 0.66220 0.14100
H 	H 	0.43520 0.11930 0.62470 0.15000
H 	H 	0.65090 0.99130 0.53260 0.08800
H 	H 	0.55900 0.53540 0.84750 0.13700
H 	H 	0.54890 0.64430 0.90610 0.14200
H 	H 	0.37780 0.45320 0.94440 0.08100
H 	H 	0.97420 0.50240 0.33780 0.14100
H 	H 	0.93520 0.61930 0.37530 0.15000
H 	H 	0.15090 0.49130 0.46740 0.08900
H 	H 	0.94100 0.96460 0.84750 0.13000
H 	H 	0.95110 0.85570 0.90610 0.13500
H 	H 	0.12220 0.04680 0.94440 0.07700
H 	H 	0.52580 0.99760 0.33780 0.14100
H 	H 	0.56480 0.88070 0.37530 0.15000
H 	H 	0.34910 0.00870 0.46740 0.08800
C 	C 	0.62430 0.37830 0.18830 0.35900
C 	C 	0.51050 0.41850 0.11750 -0.28200
C 	C 	0.56820 0.48100 0.03130 -0.03900
C 	C 	0.68120 0.41680 0.97330 0.29400
C 	C 	0.85390 0.38490 0.68720 0.37200
C 	C 	0.98460 0.43360 0.62840 -0.28000
C 	C 	0.94160 0.46580 0.52770 -0.05200
C 	C 	0.90420 0.37050 0.46720 0.30200
C 	C 	0.87570 0.12170 0.18830 0.35500
C 	C 	0.98950 0.08150 0.11750 -0.26700
C 	C 	0.93180 0.01900 0.03130 -0.03700
C 	C 	0.81880 0.08320 0.97330 0.29400
C 	C 	0.64610 0.11510 0.68720 0.37200
C 	C 	0.51540 0.06640 0.62840 -0.28100
C 	C 	0.55840 0.03420 0.52770 -0.05100
C 	C 	0.59580 0.12950 0.46720 0.30100
C 	C 	0.37570 0.62170 0.81170 0.35900
C 	C 	0.48950 0.58150 0.88250 -0.28200
C 	C 	0.43180 0.51900 0.96870 -0.03900
C 	C 	0.31880 0.58320 0.02670 0.29400
C 	C 	0.14610 0.61510 0.31280 0.37200
C 	C 	0.01540 0.56640 0.37160 -0.28000
C 	C 	0.05840 0.53420 0.47230 -0.05200
C 	C 	0.09580 0.62950 0.53280 0.30200
C 	C 	0.12430 0.87830 0.81170 0.35500
C 	C 	0.01050 0.91850 0.88250 -0.26700
C 	C 	0.06820 0.98100 0.96870 -0.03700
C 	C 	0.18120 0.91680 0.02670 0.29400
C 	C 	0.35390 0.88490 0.31280 0.37200
C 	C 	0.48460 0.93360 0.37160 -0.28100
C 	C 	0.44160 0.96580 0.47230 -0.05100
C 	C 	0.40420 0.87050 0.53280 0.30100
O 	O 	0.58480 0.30310 0.24540 -0.41300
O 	O 	0.81420 0.43940 0.97370 -0.24100
O 	O 	0.62270 0.33660 0.92230 -0.39600
O 	O 	0.89960 0.33530 0.76920 -0.40300
O 	O 	0.72660 0.39320 0.66830 -0.29300
O 	O 	0.78450 0.37200 0.41460 -0.39000
O 	O 	0.98880 0.29340 0.46250 -0.25400
O 	O 	0.75500 0.42520 0.19340 -0.26600
O 	O 	0.91520 0.19690 0.24540 -0.41100
O 	O 	0.68580 0.06060 0.97370 -0.24100
O 	O 	0.87730 0.16340 0.92230 -0.39500
O 	O 	0.60040 0.16470 0.76920 -0.40400
O 	O 	0.77340 0.10680 0.66830 -0.29200
O 	O 	0.71550 0.12800 0.41460 -0.38900
O 	O 	0.51120 0.20660 0.46250 -0.25500
O 	O 	0.74500 0.07480 0.19340 -0.26400
O 	O 	0.41520 0.69690 0.75460 -0.41300
O 	O 	0.18580 0.56060 0.02630 -0.24100
O 	O 	0.37730 0.66340 0.07770 -0.39600
O 	O 	0.10040 0.66470 0.23080 -0.40300
O 	O 	0.27340 0.60680 0.33170 -0.29300
O 	O 	0.21550 0.62800 0.58540 -0.39000
O 	O 	0.01120 0.70660 0.53750 -0.25400
O 	O 	0.24500 0.57480 0.80660 -0.26600
O 	O 	0.08480 0.80310 0.75460 -0.41100
O 	O 	0.31420 0.93940 0.02630 -0.24100
O 	O 	0.12270 0.83660 0.07770 -0.39500
O 	O 	0.39960 0.83530 0.23080 -0.40400
O 	O 	0.22660 0.89320 0.33170 -0.29200
O 	O 	0.28450 0.87200 0.58540 -0.38900
O 	O 	0.48880 0.79340 0.53750 -0.25500
O 	O 	0.25500 0.92520 0.80660 -0.26400
