data_crystal

_cell_length_a 12.17860
_cell_length_b 13.82500
_cell_length_c 17.23300
_cell_angle_alpha 90.00000
_cell_angle_beta  92.48290
_cell_angle_gamma 90.00000

_symmetry_space_group_name_	'P 1'
_symmetry_space_group_name_H-M	'P 1'

loop_
_symmetry_equiv_pos_as_xyz
  x,y,z

loop_
_atom_site_label
_atom_site_type_symbol
_atom_site_fract_x
_atom_site_fract_y
_atom_site_fract_z
_atom_site_charge
Zn	Zn	0.43954 0.47515 0.90160 1.18300
Zn	Zn	0.46297 0.90287 0.92677 1.18200
Zn	Zn	0.06046 0.97515 0.09840 1.18200
Zn	Zn	0.03703 0.40287 0.07323 1.18400
Zn	Zn	0.56046 0.52485 0.09840 1.18300
Zn	Zn	0.53703 0.09713 0.07323 1.18300
Zn	Zn	0.93954 0.02485 0.90160 1.18200
Zn	Zn	0.96297 0.59713 0.92677 1.18100
H 	H 	0.47010 0.69660 0.84960 -0.01900
H 	H 	0.26840 0.38730 0.01120 -0.04000
H 	H 	0.53690 0.30110 0.69920 -0.03200
H 	H 	0.53930 0.23570 0.57560 0.16000
H 	H 	0.35710 0.45450 0.49440 0.16600
H 	H 	0.35590 0.51880 0.61500 -0.03400
H 	H 	0.23740 0.25980 0.45640 0.14700
H 	H 	0.10290 0.29170 0.36070 0.00300
H 	H 	0.33690 0.38460 0.22040 -0.02800
H 	H 	0.46740 0.35570 0.31700 0.17100
H 	H 	0.26440 0.60470 0.80930 0.16900
H 	H 	0.14660 0.63130 0.81520 0.16400
H 	H 	0.53290 0.73650 0.13440 0.14300
H 	H 	0.52110 0.83040 0.09240 0.10700
H 	H 	0.02990 0.19660 0.15040 -0.01700
H 	H 	0.23160 0.88730 0.98880 -0.03200
H 	H 	0.96310 0.80110 0.30080 -0.03200
H 	H 	0.96070 0.73570 0.42440 0.15000
H 	H 	0.14290 0.95450 0.50560 0.16000
H 	H 	0.14410 0.01880 0.38500 -0.02300
H 	H 	0.26260 0.75980 0.54360 0.14600
H 	H 	0.39710 0.79170 0.63930 0.00000
H 	H 	0.16310 0.88460 0.77960 -0.02700
H 	H 	0.03260 0.85570 0.68300 0.17300
H 	H 	0.23560 0.10470 0.19070 0.16900
H 	H 	0.35340 0.13130 0.18480 0.16200
H 	H 	0.96710 0.23650 0.86560 0.14100
H 	H 	0.97890 0.33040 0.90760 0.10400
H 	H 	0.52990 0.30340 0.15040 -0.01900
H 	H 	0.73160 0.61270 0.98880 -0.03800
H 	H 	0.46310 0.69890 0.30080 -0.03200
H 	H 	0.46070 0.76430 0.42440 0.16000
H 	H 	0.64290 0.54550 0.50560 0.16500
H 	H 	0.64410 0.48120 0.38500 -0.03400
H 	H 	0.76260 0.74020 0.54360 0.14700
H 	H 	0.89710 0.70830 0.63930 -0.00200
H 	H 	0.66310 0.61540 0.77960 -0.02900
H 	H 	0.53260 0.64430 0.68300 0.17200
H 	H 	0.73560 0.39530 0.19070 0.16800
H 	H 	0.85340 0.36870 0.18480 0.15900
H 	H 	0.46710 0.26350 0.86560 0.14400
H 	H 	0.47890 0.16960 0.90760 0.10800
H 	H 	0.97010 0.80340 0.84960 -0.01900
H 	H 	0.76840 0.11270 0.01120 -0.03600
H 	H 	0.03690 0.19890 0.69920 -0.03000
H 	H 	0.03930 0.26430 0.57560 0.15700
H 	H 	0.85710 0.04550 0.49440 0.16000
H 	H 	0.85590 0.98120 0.61500 -0.02800
H 	H 	0.73740 0.24020 0.45640 0.14600
H 	H 	0.60290 0.20830 0.36070 0.00100
H 	H 	0.83690 0.11540 0.22040 -0.03000
H 	H 	0.96740 0.14430 0.31700 0.16700
H 	H 	0.76440 0.89530 0.80930 0.16900
H 	H 	0.64660 0.86870 0.81520 0.16200
H 	H 	0.03290 0.76350 0.13440 0.14400
H 	H 	0.02110 0.66960 0.09240 0.10900
C 	C 	0.48280 0.68890 0.90280 0.09500
C 	C 	0.50910 0.71970 0.02270 0.16800
C 	C 	0.19400 0.53540 0.88970 0.19500
C 	C 	0.23070 0.43160 0.97930 0.07900
C 	C 	0.44130 0.46000 0.75100 0.37200
C 	C 	0.44600 0.41730 0.67050 -0.24200
C 	C 	0.50000 0.33220 0.65800 0.20600
C 	C 	0.50000 0.29210 0.58400 -0.33700
C 	C 	0.44250 0.33520 0.52380 0.35300
C 	C 	0.39190 0.42220 0.53580 -0.36300
C 	C 	0.39270 0.46080 0.60760 0.22900
C 	C 	0.36470 0.31000 0.39630 0.32800
C 	C 	0.25610 0.28710 0.40950 -0.29700
C 	C 	0.17600 0.30550 0.35180 0.16200
C 	C 	0.20360 0.34480 0.27990 -0.20100
C 	C 	0.31570 0.36150 0.26820 0.18800
C 	C 	0.39380 0.34420 0.32590 -0.32200
C 	C 	0.11730 0.36560 0.21860 0.35300
C 	C 	0.01720 0.18890 0.09720 0.09600
C 	C 	0.99090 0.21970 0.97730 0.15900
C 	C 	0.30600 0.03540 0.11030 0.19700
C 	C 	0.26930 0.93160 0.02070 0.06700
C 	C 	0.05870 0.96000 0.24900 0.36200
C 	C 	0.05400 0.91730 0.32950 -0.23000
C 	C 	0.00000 0.83220 0.34200 0.19900
C 	C 	0.00000 0.79210 0.41600 -0.31800
C 	C 	0.05750 0.83520 0.47620 0.34100
C 	C 	0.10810 0.92220 0.46420 -0.34700
C 	C 	0.10730 0.96080 0.39240 0.20900
C 	C 	0.13530 0.81000 0.60370 0.32800
C 	C 	0.24390 0.78710 0.59050 -0.29700
C 	C 	0.32400 0.80550 0.64820 0.16300
C 	C 	0.29640 0.84480 0.72010 -0.20200
C 	C 	0.18430 0.86150 0.73180 0.18800
C 	C 	0.10620 0.84420 0.67410 -0.32100
C 	C 	0.38270 0.86560 0.78140 0.35300
C 	C 	0.51720 0.31110 0.09720 0.09400
C 	C 	0.49090 0.28030 0.97730 0.17000
C 	C 	0.80600 0.46460 0.11030 0.19200
C 	C 	0.76930 0.56840 0.02070 0.07500
C 	C 	0.55870 0.54000 0.24900 0.37200
C 	C 	0.55400 0.58270 0.32950 -0.24200
C 	C 	0.50000 0.66780 0.34200 0.20600
C 	C 	0.50000 0.70790 0.41600 -0.33700
C 	C 	0.55750 0.66480 0.47620 0.35300
C 	C 	0.60810 0.57780 0.46420 -0.36400
C 	C 	0.60730 0.53920 0.39240 0.22900
C 	C 	0.63530 0.69000 0.60370 0.32900
C 	C 	0.74390 0.71290 0.59050 -0.30000
C 	C 	0.82400 0.69450 0.64820 0.16400
C 	C 	0.79640 0.65520 0.72010 -0.20500
C 	C 	0.68430 0.63850 0.73180 0.19000
C 	C 	0.60620 0.65580 0.67410 -0.32400
C 	C 	0.88270 0.63440 0.78140 0.35400
C 	C 	0.98280 0.81110 0.90280 0.09300
C 	C 	0.00910 0.78030 0.02270 0.17200
C 	C 	0.69400 0.96460 0.88970 0.19600
C 	C 	0.73070 0.06840 0.97930 0.07000
C 	C 	0.94130 0.04000 0.75100 0.36700
C 	C 	0.94600 0.08270 0.67050 -0.24900
C 	C 	0.00000 0.16780 0.65800 0.21600
C 	C 	-0.00000 0.20790 0.58400 -0.32000
C 	C 	0.94250 0.16480 0.52380 0.33500
C 	C 	0.89190 0.07780 0.53580 -0.35300
C 	C 	0.89270 0.03920 0.60760 0.21700
C 	C 	0.86470 0.19000 0.39630 0.32600
C 	C 	0.75610 0.21290 0.40950 -0.29700
C 	C 	0.67600 0.19450 0.35180 0.16200
C 	C 	0.70360 0.15520 0.27990 -0.20200
C 	C 	0.81570 0.13850 0.26820 0.18700
C 	C 	0.89380 0.15580 0.32590 -0.32100
C 	C 	0.61730 0.13440 0.21860 0.35300
N 	N 	0.27720 0.47920 0.91920 -0.30300
N 	N 	0.10010 0.52240 0.92810 -0.28800
N 	N 	0.12700 0.45520 0.98720 -0.26300
N 	N 	0.20270 0.59790 0.83110 -0.35600
N 	N 	0.51080 0.62290 0.01710 -0.27700
N 	N 	0.49180 0.76270 0.95270 -0.30200
N 	N 	0.49410 0.60350 0.93740 -0.26800
N 	N 	0.52270 0.76820 0.09170 -0.32900
N 	N 	0.22280 0.97920 0.08080 -0.30400
N 	N 	0.39990 0.02240 0.07190 -0.29000
N 	N 	0.37300 0.95520 0.01280 -0.26500
N 	N 	0.29730 0.09790 0.16890 -0.35600
N 	N 	0.98920 0.12290 0.98290 -0.28000
N 	N 	0.00820 0.26270 0.04730 -0.29700
N 	N 	0.00590 0.10350 0.06260 -0.26300
N 	N 	0.97730 0.26820 0.90830 -0.32700
N 	N 	0.72280 0.52080 0.08080 -0.30300
N 	N 	0.89990 0.47760 0.07190 -0.29200
N 	N 	0.87300 0.54480 0.01280 -0.26600
N 	N 	0.79730 0.40210 0.16890 -0.35500
N 	N 	0.48920 0.37710 0.98290 -0.27600
N 	N 	0.50820 0.23730 0.04730 -0.30300
N 	N 	0.50590 0.39650 0.06260 -0.26900
N 	N 	0.47730 0.23180 0.90830 -0.32900
N 	N 	0.77720 0.02080 0.91920 -0.30400
N 	N 	0.60010 0.97760 0.92810 -0.29000
N 	N 	0.62700 0.04480 0.98720 -0.26500
N 	N 	0.70270 0.90210 0.83110 -0.35600
N 	N 	0.01080 0.87710 0.01710 -0.27600
N 	N 	0.99180 0.73730 0.95270 -0.30600
N 	N 	0.99410 0.89650 0.93740 -0.26900
N 	N 	0.02270 0.73180 0.09170 -0.33000
O 	O 	0.44650 0.28870 0.45250 -0.32900
O 	O 	0.01990 0.34720 0.22800 -0.33800
O 	O 	0.15300 0.40120 0.15380 -0.47900
O 	O 	0.40370 0.54130 0.76140 -0.37400
O 	O 	0.48150 0.40760 0.80670 -0.48300
O 	O 	0.05350 0.78870 0.54750 -0.32400
O 	O 	0.48010 0.84720 0.77200 -0.34200
O 	O 	0.34700 0.90120 0.84620 -0.47800
O 	O 	0.09630 0.04130 0.23860 -0.36700
O 	O 	0.01850 0.90760 0.19330 -0.48000
O 	O 	0.55350 0.71130 0.54750 -0.32900
O 	O 	0.98010 0.65280 0.77200 -0.34600
O 	O 	0.84700 0.59880 0.84620 -0.48100
O 	O 	0.59630 0.45870 0.23860 -0.37500
O 	O 	0.51850 0.59240 0.19330 -0.48300
O 	O 	0.94650 0.21130 0.45250 -0.32900
O 	O 	0.51990 0.15280 0.22800 -0.34200
O 	O 	0.65300 0.09880 0.15380 -0.48000
O 	O 	0.90370 0.95870 0.76140 -0.37100
O 	O 	0.98150 0.09240 0.80670 -0.48600
