data_crystal

_cell_length_a 12.52230
_cell_length_b 12.52230
_cell_length_c 15.73830
_cell_angle_alpha 113.44200
_cell_angle_beta  113.44200
_cell_angle_gamma 90.00010

_symmetry_space_group_name_	'P 1'
_symmetry_space_group_name_H-M	'P 1'

loop_
_symmetry_equiv_pos_as_xyz
  x,y,z

loop_
_atom_site_label
_atom_site_type_symbol
_atom_site_fract_x
_atom_site_fract_y
_atom_site_fract_z
_atom_site_charge
Zn	Zn	0.87509 0.39560 0.37492 1.18700
Zn	Zn	0.49983 0.97932 0.37492 1.18700
Zn	Zn	0.39560 0.49983 0.37492 1.18700
Zn	Zn	0.97932 0.87509 0.37492 1.18500
Zn	Zn	0.12491 0.60440 0.62508 1.18700
Zn	Zn	0.50017 0.02068 0.62508 1.18700
Zn	Zn	0.60440 0.50017 0.62508 1.18700
Zn	Zn	0.02068 0.12491 0.62508 1.18500
H 	H 	0.74900 0.99990 0.15460 0.01300
H 	H 	0.91490 0.19330 0.44380 -0.04200
H 	H 	0.16460 0.38650 0.78800 0.15800
H 	H 	0.18180 0.50730 0.78860 0.15700
H 	H 	0.40560 0.15470 0.15460 0.02700
H 	H 	0.52890 0.25050 0.44380 -0.04200
H 	H 	0.62340 0.40150 0.78800 0.15800
H 	H 	0.60680 0.28130 0.78860 0.15800
H 	H 	0.99990 0.40560 0.15460 0.02200
H 	H 	0.19330 0.52890 0.44380 -0.04200
H 	H 	0.38650 0.62340 0.78800 0.15800
H 	H 	0.50730 0.60680 0.78860 0.15800
H 	H 	0.15470 0.74900 0.15460 0.02700
H 	H 	0.25050 0.91490 0.44380 -0.04300
H 	H 	0.40150 0.16460 0.78800 0.15800
H 	H 	0.28130 0.18180 0.78860 0.15700
H 	H 	0.25100 0.00010 0.84540 0.01700
H 	H 	0.08510 0.80670 0.55620 -0.04200
H 	H 	0.83540 0.61350 0.21200 0.15700
H 	H 	0.81820 0.49270 0.21140 0.15700
H 	H 	0.59440 0.84530 0.84540 0.01900
H 	H 	0.47110 0.74950 0.55620 -0.04200
H 	H 	0.37660 0.59850 0.21200 0.15800
H 	H 	0.39320 0.71870 0.21140 0.15700
H 	H 	0.00010 0.59440 0.84540 0.02700
H 	H 	0.80670 0.47110 0.55620 -0.04200
H 	H 	0.61350 0.37660 0.21200 0.15800
H 	H 	0.49270 0.39320 0.21140 0.15700
H 	H 	0.84530 0.25100 0.84540 0.02100
H 	H 	0.74950 0.08510 0.55620 -0.04200
H 	H 	0.59850 0.83540 0.21200 0.15700
H 	H 	0.71870 0.81820 0.21140 0.15700
H 	H 	0.64480 0.83140 -0.00000 0.07600
H 	H 	0.68050 0.20190 -0.00000 0.04600
H 	H 	0.35520 0.16860 -0.00000 0.06800
H 	H 	0.31950 0.79810 -0.00000 0.05100
H 	H 	0.83140 0.35520 -0.00000 0.07100
H 	H 	0.20190 0.31950 -0.00000 0.04700
H 	H 	0.16860 0.64480 -0.00000 0.06400
H 	H 	0.79810 0.68050 -0.00000 0.05200
C 	C 	0.72245 0.11635 0.09290 -0.08900
C 	C 	0.71500 0.00680 0.09160 0.05700
C 	C 	0.07630 0.38490 0.65420 0.19900
C 	C 	0.96215 0.26435 0.50210 0.08800
C 	C 	0.77890 0.24260 0.18720 0.30100
C 	C 	0.37045 0.97655 0.09290 -0.07400
C 	C 	0.37660 0.08480 0.09160 0.02500
C 	C 	0.57790 0.26930 0.65420 0.20000
C 	C 	0.53995 0.23775 0.50210 0.08400
C 	C 	0.40830 0.94460 0.18720 0.29600
C 	C 	0.11635 0.37045 0.09290 -0.08200
C 	C 	0.00680 0.37660 0.09160 0.03600
C 	C 	0.38490 0.57790 0.65420 0.20000
C 	C 	0.26435 0.53995 0.50210 0.08400
C 	C 	0.24260 0.40830 0.18720 0.29900
C 	C 	0.97655 0.72245 0.09290 -0.07500
C 	C 	0.08480 0.71500 0.09160 0.02400
C 	C 	0.26930 0.07630 0.65420 0.19900
C 	C 	0.23775 0.96215 0.50210 0.08800
C 	C 	0.94460 0.77890 0.18720 0.28900
C 	C 	0.27755 0.88365 0.90710 -0.07300
C 	C 	0.28500 0.99320 0.90840 0.04000
C 	C 	0.92370 0.61510 0.34580 0.19900
C 	C 	0.03785 0.73565 0.49790 0.08800
C 	C 	0.22110 0.75740 0.81280 0.29700
C 	C 	0.62955 0.02345 0.90710 -0.08700
C 	C 	0.62340 0.91520 0.90840 0.05100
C 	C 	0.42210 0.73070 0.34580 0.20000
C 	C 	0.46005 0.76225 0.49790 0.08400
C 	C 	0.59170 0.05540 0.81280 0.29900
C 	C 	0.88365 0.62955 0.90710 -0.06300
C 	C 	0.99320 0.62340 0.90840 0.02200
C 	C 	0.61510 0.42210 0.34580 0.20000
C 	C 	0.73565 0.46005 0.49790 0.08400
C 	C 	0.75740 0.59170 0.81280 0.29500
C 	C 	0.02345 0.27755 0.90710 -0.08900
C 	C 	0.91520 0.28500 0.90840 0.04600
C 	C 	0.73070 0.92370 0.34580 0.19900
C 	C 	0.76225 0.03785 0.49790 0.08700
C 	C 	0.05540 0.22110 0.81280 0.29300
C 	C 	0.65890 0.90600 -0.00000 -0.12900
C 	C 	0.67790 0.12600 -0.00000 0.01300
C 	C 	0.34110 0.09400 -0.00000 -0.10100
C 	C 	0.32210 0.87400 -0.00000 -0.00300
C 	C 	0.90600 0.34110 -0.00000 -0.11100
C 	C 	0.12600 0.32210 -0.00000 0.01200
C 	C 	0.09400 0.65890 -0.00000 -0.09000
C 	C 	0.87400 0.67790 -0.00000 -0.01100
N 	N 	0.97457 0.36517 0.49814 -0.26100
N 	N 	0.05010 0.44780 0.59900 -0.28700
N 	N 	0.02296 0.27066 0.59732 -0.30300
N 	N 	0.14934 0.43164 0.75528 -0.33900
N 	N 	0.52357 0.13297 0.49814 -0.26200
N 	N 	0.54890 0.15120 0.59900 -0.28600
N 	N 	0.57436 0.32666 0.59732 -0.30100
N 	N 	0.60594 0.32364 0.75528 -0.33900
N 	N 	0.36517 0.52357 0.49814 -0.26200
N 	N 	0.44780 0.54890 0.59900 -0.28600
N 	N 	0.27066 0.57436 0.59732 -0.30100
N 	N 	0.43164 0.60594 0.75528 -0.33900
N 	N 	0.13297 0.97457 0.49814 -0.25900
N 	N 	0.15120 0.05010 0.59900 -0.28900
N 	N 	0.32666 0.02296 0.59732 -0.30300
N 	N 	0.32364 0.14934 0.75528 -0.33900
N 	N 	0.02543 0.63483 0.50186 -0.26200
N 	N 	0.94990 0.55220 0.40100 -0.28600
N 	N 	0.97704 0.72934 0.40268 -0.30300
N 	N 	0.85066 0.56836 0.24472 -0.33900
N 	N 	0.47643 0.86703 0.50186 -0.26100
N 	N 	0.45110 0.84880 0.40100 -0.28600
N 	N 	0.42564 0.67334 0.40268 -0.30100
N 	N 	0.39406 0.67636 0.24472 -0.33900
N 	N 	0.63483 0.47643 0.50186 -0.26200
N 	N 	0.55220 0.45110 0.40100 -0.28600
N 	N 	0.72934 0.42564 0.40268 -0.30100
N 	N 	0.56836 0.39406 0.24472 -0.33900
N 	N 	0.86703 0.02543 0.50186 -0.25900
N 	N 	0.84880 0.94990 0.40100 -0.28800
N 	N 	0.67334 0.97704 0.40268 -0.30200
N 	N 	0.67636 0.85066 0.24472 -0.33800
O 	O 	0.75240 0.33780 0.18160 -0.36700
O 	O 	0.84290 0.23770 0.27140 -0.47600
O 	O 	0.42920 0.84380 0.18160 -0.36600
O 	O 	0.42850 0.03370 0.27140 -0.47500
O 	O 	0.33780 0.42920 0.18160 -0.36700
O 	O 	0.23770 0.42850 0.27140 -0.47600
O 	O 	0.84380 0.75240 0.18160 -0.36500
O 	O 	0.03370 0.84290 0.27140 -0.46900
O 	O 	0.24760 0.66220 0.81840 -0.36500
O 	O 	0.15710 0.76230 0.72860 -0.47500
O 	O 	0.57080 0.15620 0.81840 -0.36600
O 	O 	0.57150 0.96630 0.72860 -0.47500
O 	O 	0.66220 0.57080 0.81840 -0.36400
O 	O 	0.76230 0.57150 0.72860 -0.47500
O 	O 	0.15620 0.24760 0.81840 -0.36600
O 	O 	0.96630 0.15710 0.72860 -0.46900
