data_crystal

_cell_length_a 9.15860
_cell_length_b 9.79690
_cell_length_c 9.87300
_cell_angle_alpha 77.59800
_cell_angle_beta  89.94700
_cell_angle_gamma 88.06000

_symmetry_space_group_name_	'P 1'
_symmetry_space_group_name_H-M	'P 1'

loop_
_symmetry_equiv_pos_as_xyz
  x,y,z

loop_
_atom_site_label
_atom_site_type_symbol
_atom_site_fract_x
_atom_site_fract_y
_atom_site_fract_z
_atom_site_charge
Zn	Zn	0.77980 0.71324 0.80890 1.22000
Zn	Zn	0.69720 0.37024 0.91058 1.23100
Zn	Zn	0.22020 0.28676 0.19110 1.21500
Zn	Zn	0.30280 0.62976 0.08942 1.22700
Zn	Zn	-0.00000 0.50000 -0.00000 1.20500
H 	H 	0.72860 0.54830 0.05040 0.15500
H 	H 	0.90070 0.60140 0.42870 0.05300
H 	H 	0.89650 0.97680 0.90510 0.02900
H 	H 	0.48970 0.64520 0.46770 0.09200
H 	H 	0.38610 0.92250 0.06980 0.13900
H 	H 	0.27140 0.45170 0.94960 0.21500
H 	H 	0.09930 0.39860 0.57130 0.14300
H 	H 	0.10350 0.02320 0.09490 0.13800
H 	H 	0.51030 0.35480 0.53230 0.09700
H 	H 	0.61390 0.07750 0.93020 0.03200
C 	C 	0.01520 0.47430 0.31070 0.29200
C 	C 	0.97160 0.52690 0.43780 0.02100
C 	C 	0.05010 0.81090 0.98480 0.33100
C 	C 	0.97750 0.95340 0.96670 0.06200
C 	C 	0.59380 0.54740 0.65810 0.38500
C 	C 	0.51620 0.55570 0.52260 -0.12400
C 	C 	0.54810 0.81180 0.98070 0.53200
C 	C 	0.47400 0.93530 0.01810 -0.34000
C 	C 	0.98480 0.52570 0.68930 0.49000
C 	C 	0.02840 0.47310 0.56220 -0.27800
C 	C 	0.94990 0.18910 0.01520 0.47800
C 	C 	0.02250 0.04660 0.03330 -0.33400
C 	C 	0.40620 0.45260 0.34190 0.38800
C 	C 	0.48380 0.44430 0.47740 -0.13100
C 	C 	0.45190 0.18820 0.01930 0.27600
C 	C 	0.52600 0.06470 0.98190 0.03900
O 	O 	0.77870 0.52980 0.96570 -0.71300
O 	O 	0.96700 0.54290 0.19630 -0.42500
O 	O 	0.09700 0.36640 0.32820 -0.45800
O 	O 	0.99470 0.72420 0.92400 -0.50000
O 	O 	0.16500 0.78910 0.05850 -0.49900
O 	O 	0.60150 0.65820 0.70080 -0.45500
O 	O 	0.64550 0.42720 0.71600 -0.47800
O 	O 	0.67140 0.82920 0.92490 -0.48400
O 	O 	0.48600 0.69550 0.00290 -0.56700
O 	O 	0.22130 0.47020 0.03430 -0.78700
O 	O 	0.03300 0.45710 0.80370 -0.50600
O 	O 	0.90300 0.63360 0.67180 -0.49500
O 	O 	0.00530 0.27580 0.07600 -0.59900
O 	O 	0.83500 0.21090 0.94150 -0.47500
O 	O 	0.39850 0.34180 0.29920 -0.46300
O 	O 	0.35450 0.57280 0.28400 -0.48600
O 	O 	0.32860 0.17080 0.07510 -0.44200
O 	O 	0.51400 0.30450 0.99710 -0.44600
