data_crystal

_cell_length_a 10.10100
_cell_length_b 10.21840
_cell_length_c 21.05800
_cell_angle_alpha 90.00000
_cell_angle_beta  90.00000
_cell_angle_gamma 106.09800

_symmetry_space_group_name_	'P 1'
_symmetry_space_group_name_H-M	'P 1'

loop_
_symmetry_equiv_pos_as_xyz
  x,y,z

loop_
_atom_site_label
_atom_site_type_symbol
_atom_site_fract_x
_atom_site_fract_y
_atom_site_fract_z
_atom_site_charge
Zn	Zn	0.89952 0.37689 0.21265 1.18300
Zn	Zn	0.60048 0.12311 0.71265 1.18400
Zn	Zn	0.10048 0.62311 0.78735 1.18300
Zn	Zn	0.39952 0.87689 0.28735 1.18400
H 	H 	0.93470 0.65880 0.02360 0.07400
H 	H 	0.20960 0.03710 0.12910 0.06300
H 	H 	0.86110 0.81060 0.94690 0.07100
H 	H 	0.89170 0.28460 0.07780 -0.01500
H 	H 	0.74210 0.15190 0.00600 0.12200
H 	H 	0.46640 0.03760 0.14630 0.10500
H 	H 	0.62010 0.17820 0.21440 -0.02200
H 	H 	0.56530 0.84120 0.52360 0.07400
H 	H 	0.29040 0.46290 0.62910 0.06300
H 	H 	0.63890 0.68940 0.44690 0.07100
H 	H 	0.60830 0.21540 0.57780 -0.01500
H 	H 	0.75790 0.34810 0.50600 0.12200
H 	H 	0.03360 0.46240 0.64630 0.10500
H 	H 	0.87990 0.32180 0.71440 -0.02200
H 	H 	0.06530 0.34120 0.97640 0.07400
H 	H 	0.79040 0.96290 0.87090 0.06300
H 	H 	0.13890 0.18940 0.05310 0.07100
H 	H 	0.10830 0.71540 0.92220 -0.01500
H 	H 	0.25790 0.84810 0.99400 0.12200
H 	H 	0.53360 0.96240 0.85370 0.10500
H 	H 	0.37990 0.82180 0.78560 -0.02200
H 	H 	0.43470 0.15880 0.47640 0.07400
H 	H 	0.70960 0.53710 0.37090 0.06300
H 	H 	0.36110 0.31060 0.55310 0.07100
H 	H 	0.39170 0.78460 0.42220 -0.01500
H 	H 	0.24210 0.65190 0.49400 0.12200
H 	H 	0.96640 0.53760 0.35370 0.10500
H 	H 	0.12010 0.67820 0.28560 -0.02200
C 	C 	0.03830 0.57540 0.12264 0.32000
C 	C 	0.06250 0.71710 0.09691 -0.03100
C 	C 	0.98860 0.73500 0.04459 -0.07400
C 	C 	0.99210 0.86580 0.02169 0.03800
C 	C 	0.07670 0.98380 0.05381 0.03100
C 	C 	0.15410 0.96210 0.10776 -0.06600
C 	C 	0.14890 0.83580 0.12865 -0.03600
C 	C 	0.91650 0.88580 0.96806 -0.10900
C 	C 	0.24060 0.81660 0.18229 0.30800
C 	C 	0.80470 0.23500 0.09148 0.10600
C 	C 	0.71600 0.15520 0.04821 -0.20300
C 	C 	0.58710 0.07990 0.06884 0.18300
C 	C 	0.55200 0.08800 0.13151 -0.21800
C 	C 	0.64510 0.17170 0.17223 0.10300
C 	C 	0.46170 0.92460 0.62264 0.31900
C 	C 	0.43750 0.78290 0.59691 -0.03100
C 	C 	0.51140 0.76500 0.54459 -0.07400
C 	C 	0.50790 0.63420 0.52169 0.03900
C 	C 	0.42330 0.51620 0.55381 0.03100
C 	C 	0.34590 0.53790 0.60776 -0.06600
C 	C 	0.35110 0.66420 0.62865 -0.03600
C 	C 	0.58350 0.61420 0.46806 -0.11000
C 	C 	0.25940 0.68340 0.68229 0.30800
C 	C 	0.69530 0.26500 0.59148 0.10600
C 	C 	0.78400 0.34480 0.54821 -0.20300
C 	C 	0.91290 0.42010 0.56884 0.18300
C 	C 	0.94800 0.41200 0.63151 -0.21700
C 	C 	0.85490 0.32830 0.67223 0.10300
C 	C 	0.96170 0.42460 0.87736 0.32000
C 	C 	0.93750 0.28290 0.90309 -0.03100
C 	C 	0.01140 0.26500 0.95541 -0.07400
C 	C 	0.00790 0.13420 0.97831 0.03800
C 	C 	0.92330 0.01620 0.94619 0.03100
C 	C 	0.84590 0.03790 0.89224 -0.06600
C 	C 	0.85110 0.16420 0.87135 -0.03600
C 	C 	0.08350 0.11420 0.03194 -0.10900
C 	C 	0.75940 0.18340 0.81771 0.30800
C 	C 	0.19530 0.76500 0.90852 0.10600
C 	C 	0.28400 0.84480 0.95179 -0.20300
C 	C 	0.41290 0.92010 0.93116 0.18300
C 	C 	0.44800 0.91200 0.86849 -0.21800
C 	C 	0.35490 0.82830 0.82777 0.10300
C 	C 	0.53830 0.07540 0.37736 0.31900
C 	C 	0.56250 0.21710 0.40309 -0.03100
C 	C 	0.48860 0.23500 0.45541 -0.07400
C 	C 	0.49210 0.36580 0.47831 0.03900
C 	C 	0.57670 0.48380 0.44619 0.03100
C 	C 	0.65410 0.46210 0.39224 -0.06600
C 	C 	0.64890 0.33580 0.37135 -0.03600
C 	C 	0.41650 0.38580 0.53194 -0.11000
C 	C 	0.74060 0.31660 0.31771 0.30800
C 	C 	0.30470 0.73500 0.40852 0.10600
C 	C 	0.21600 0.65520 0.45179 -0.20300
C 	C 	0.08710 0.57990 0.43116 0.18300
C 	C 	0.05200 0.58800 0.36849 -0.21700
C 	C 	0.14510 0.67170 0.32777 0.10300
N 	N 	0.77080 0.24410 0.15270 -0.28900
N 	N 	0.48620 0.99130 0.02861 -0.10100
N 	N 	0.72920 0.25590 0.65270 -0.28900
N 	N 	0.01380 0.50870 0.52861 -0.10100
N 	N 	0.22920 0.75590 0.84730 -0.28900
N 	N 	0.51380 0.00870 0.97139 -0.10100
N 	N 	0.27080 0.74410 0.34730 -0.28900
N 	N 	0.98620 0.49130 0.47139 -0.10100
O 	O 	0.97590 0.55810 0.17714 -0.45400
O 	O 	0.06790 0.48500 0.09188 -0.30100
O 	O 	0.27530 0.71060 0.18679 -0.33200
O 	O 	0.28230 0.91800 0.22017 -0.45600
O 	O 	0.52410 0.94190 0.67714 -0.45400
O 	O 	0.43210 0.01500 0.59188 -0.30100
O 	O 	0.22470 0.78940 0.68679 -0.33300
O 	O 	0.21770 0.58200 0.72017 -0.45600
O 	O 	0.02410 0.44190 0.82286 -0.45400
O 	O 	0.93210 0.51500 0.90812 -0.30100
O 	O 	0.72470 0.28940 0.81321 -0.33200
O 	O 	0.71770 0.08200 0.77983 -0.45600
O 	O 	0.47590 0.05810 0.32286 -0.45400
O 	O 	0.56790 0.98500 0.40812 -0.30100
O 	O 	0.77530 0.21060 0.31321 -0.33300
O 	O 	0.78230 0.41800 0.27983 -0.45600
