data_crystal

_cell_length_a 18.59000
_cell_length_b 18.59000
_cell_length_c 18.59000
_cell_angle_alpha 74.87650
_cell_angle_beta  74.87650
_cell_angle_gamma 74.87650

_symmetry_space_group_name_	'P 1'
_symmetry_space_group_name_H-M	'P 1'

loop_
_symmetry_equiv_pos_as_xyz
  x,y,z

loop_
_atom_site_label
_atom_site_type_symbol
_atom_site_fract_x
_atom_site_fract_y
_atom_site_fract_z
_atom_site_charge
Zn	Zn	0.50242 0.29842 0.08057 1.14800
Zn	Zn	0.59889 0.26773 0.90970 1.23300
Zn	Zn	0.08057 0.50242 0.29842 1.14800
Zn	Zn	0.90970 0.59889 0.26773 1.23300
Zn	Zn	0.29842 0.08057 0.50242 1.14800
Zn	Zn	0.26773 0.90970 0.59889 1.23300
Zn	Zn	0.79842 0.00242 0.58057 1.14900
Zn	Zn	0.76773 0.09889 0.40970 1.23200
Zn	Zn	0.00242 0.58057 0.79842 1.14900
Zn	Zn	0.09889 0.40970 0.76773 1.23300
Zn	Zn	0.58057 0.79842 0.00242 1.15000
Zn	Zn	0.40970 0.76773 0.09889 1.23300
H 	H 	0.49860 0.52860 0.02200 0.00500
H 	H 	0.56650 0.71070 0.86860 -0.00500
H 	H 	0.63000 0.50300 0.81570 0.03900
H 	H 	0.56160 0.74450 0.73770 0.08600
H 	H 	0.68620 0.19350 0.18180 0.03900
H 	H 	0.87590 0.02830 0.17710 0.06200
H 	H 	0.80270 0.13360 0.98090 0.07300
H 	H 	0.93360 0.11220 0.93170 0.05500
H 	H 	0.02200 0.49860 0.52860 0.00500
H 	H 	0.86860 0.56650 0.71070 -0.00500
H 	H 	0.81570 0.63000 0.50300 0.03900
H 	H 	0.73770 0.56160 0.74450 0.08600
H 	H 	0.18180 0.68620 0.19350 0.03900
H 	H 	0.17710 0.87590 0.02830 0.06200
H 	H 	0.98090 0.80270 0.13360 0.07300
H 	H 	0.93170 0.93360 0.11220 0.05500
H 	H 	0.52860 0.02200 0.49860 0.00500
H 	H 	0.71070 0.86860 0.56650 -0.00500
H 	H 	0.50300 0.81570 0.63000 0.03900
H 	H 	0.74450 0.73770 0.56160 0.08600
H 	H 	0.19350 0.18180 0.68620 0.03900
H 	H 	0.02830 0.17710 0.87590 0.06200
H 	H 	0.13360 0.98090 0.80270 0.07300
H 	H 	0.11220 0.93170 0.93360 0.05500
H 	H 	0.02860 0.99860 0.52200 0.03500
H 	H 	0.21070 0.06650 0.36860 -0.01300
H 	H 	0.00300 0.13000 0.31570 0.03400
H 	H 	0.24450 0.06160 0.23770 0.08200
H 	H 	0.69350 0.18620 0.68180 0.03200
H 	H 	0.52830 0.37590 0.67710 0.05100
H 	H 	0.63360 0.30270 0.48090 0.04200
H 	H 	0.61220 0.43360 0.43170 0.08500
H 	H 	0.99860 0.52200 0.02860 0.03500
H 	H 	0.06650 0.36860 0.21070 -0.01300
H 	H 	0.13000 0.31570 0.00300 0.03400
H 	H 	0.06160 0.23770 0.24450 0.08200
H 	H 	0.18620 0.68180 0.69350 0.03200
H 	H 	0.37590 0.67710 0.52830 0.05100
H 	H 	0.30270 0.48090 0.63360 0.04200
H 	H 	0.43360 0.43170 0.61220 0.08500
H 	H 	0.52200 0.02860 0.99860 0.03500
H 	H 	0.36860 0.21070 0.06650 -0.01300
H 	H 	0.31570 0.00300 0.13000 0.03400
H 	H 	0.23770 0.24450 0.06160 0.08200
H 	H 	0.68180 0.69350 0.18620 0.03200
H 	H 	0.67710 0.52830 0.37590 0.05100
H 	H 	0.48090 0.63360 0.30270 0.04200
H 	H 	0.43170 0.61220 0.43360 0.08500
C 	C 	0.55916 0.41966 0.94255 0.42900
C 	C 	0.56322 0.50400 0.92165 -0.13800
C 	C 	0.52548 0.54997 0.97348 0.08800
C 	C 	0.52650 0.62801 0.95484 -0.13500
C 	C 	0.56573 0.65794 0.88223 0.02200
C 	C 	0.60306 0.61264 0.83026 -0.07000
C 	C 	0.60289 0.53503 0.85059 0.03100
C 	C 	0.48446 0.67622 0.01179 0.33100
C 	C 	0.64283 0.64767 0.75258 0.10000
C 	C 	0.61002 0.71861 0.71478 -0.17100
C 	C 	0.67392 0.22101 0.03553 0.36700
C 	C 	0.73526 0.16814 0.07461 -0.08100
C 	C 	0.72735 0.16223 0.15437 0.00400
C 	C 	0.78058 0.11044 0.19001 -0.05000
C 	C 	0.84119 0.06569 0.15009 -0.04300
C 	C 	0.85296 0.07362 0.07174 0.01500
C 	C 	0.79698 0.12684 0.03442 -0.05200
C 	C 	0.92238 0.03110 0.02987 -0.01000
C 	C 	0.95854 0.06494 0.95744 -0.04100
C 	C 	0.77521 0.10031 0.27481 0.28600
C 	C 	0.94255 0.55916 0.41966 0.42900
C 	C 	0.92165 0.56322 0.50400 -0.13800
C 	C 	0.97348 0.52548 0.54997 0.08800
C 	C 	0.95484 0.52650 0.62801 -0.13500
C 	C 	0.88223 0.56573 0.65794 0.02200
C 	C 	0.83026 0.60306 0.61264 -0.07000
C 	C 	0.85059 0.60289 0.53503 0.03100
C 	C 	0.01179 0.48446 0.67622 0.33100
C 	C 	0.75258 0.64283 0.64767 0.10000
C 	C 	0.71478 0.61002 0.71861 -0.17100
C 	C 	0.03553 0.67392 0.22101 0.36700
C 	C 	0.07461 0.73526 0.16814 -0.08100
C 	C 	0.15437 0.72735 0.16223 0.00400
C 	C 	0.19001 0.78058 0.11044 -0.05000
C 	C 	0.15009 0.84119 0.06569 -0.04300
C 	C 	0.07174 0.85296 0.07362 0.01500
C 	C 	0.03442 0.79698 0.12684 -0.05200
C 	C 	0.02987 0.92238 0.03110 -0.01000
C 	C 	0.95744 0.95854 0.06494 -0.04100
C 	C 	0.27481 0.77521 0.10031 0.28600
C 	C 	0.41966 0.94255 0.55916 0.42900
C 	C 	0.50400 0.92165 0.56322 -0.13800
C 	C 	0.54997 0.97348 0.52548 0.08800
C 	C 	0.62801 0.95484 0.52650 -0.13500
C 	C 	0.65794 0.88223 0.56573 0.02200
C 	C 	0.61264 0.83026 0.60306 -0.07000
C 	C 	0.53503 0.85059 0.60289 0.03100
C 	C 	0.67622 0.01179 0.48446 0.33100
C 	C 	0.64767 0.75258 0.64283 0.10000
C 	C 	0.71861 0.71478 0.61002 -0.17100
C 	C 	0.22101 0.03553 0.67392 0.36700
C 	C 	0.16814 0.07461 0.73526 -0.08100
C 	C 	0.16223 0.15437 0.72735 0.00400
C 	C 	0.11044 0.19001 0.78058 -0.05000
C 	C 	0.06569 0.15009 0.84119 -0.04300
C 	C 	0.07362 0.07174 0.85296 0.01500
C 	C 	0.12684 0.03442 0.79698 -0.05200
C 	C 	0.03110 0.02987 0.92238 -0.01000
C 	C 	0.06494 0.95744 0.95854 -0.04100
C 	C 	0.10031 0.27481 0.77521 0.28600
C 	C 	0.91966 0.05916 0.44255 0.41800
C 	C 	0.00400 0.06322 0.42165 -0.13600
C 	C 	0.04997 0.02548 0.47348 0.04300
C 	C 	0.12801 0.02650 0.45484 -0.15200
C 	C 	0.15794 0.06573 0.38223 0.02400
C 	C 	0.11264 0.10306 0.33026 -0.07200
C 	C 	0.03503 0.10289 0.35059 0.02600
C 	C 	0.17622 0.98446 0.51179 0.35400
C 	C 	0.14767 0.14283 0.25258 0.09600
C 	C 	0.21861 0.11002 0.21478 -0.17100
C 	C 	0.72101 0.17392 0.53553 0.39500
C 	C 	0.66814 0.23526 0.57461 -0.11200
C 	C 	0.66223 0.22735 0.65437 0.02800
C 	C 	0.61044 0.28058 0.69001 -0.07000
C 	C 	0.56569 0.34119 0.65009 -0.00700
C 	C 	0.57362 0.35296 0.57174 -0.03900
C 	C 	0.62684 0.29698 0.53442 0.01000
C 	C 	0.53110 0.42238 0.52987 0.09000
C 	C 	0.56494 0.45854 0.45744 -0.15000
C 	C 	0.60031 0.27521 0.77481 0.29300
C 	C 	0.05916 0.44255 0.91966 0.41800
C 	C 	0.06322 0.42165 0.00400 -0.13600
C 	C 	0.02548 0.47348 0.04997 0.04300
C 	C 	0.02650 0.45484 0.12801 -0.15200
C 	C 	0.06573 0.38223 0.15794 0.02400
C 	C 	0.10306 0.33026 0.11264 -0.07200
C 	C 	0.10289 0.35059 0.03503 0.02600
C 	C 	0.98446 0.51179 0.17622 0.35400
C 	C 	0.14283 0.25258 0.14767 0.09600
C 	C 	0.11002 0.21478 0.21861 -0.17100
C 	C 	0.17392 0.53553 0.72101 0.39500
C 	C 	0.23526 0.57461 0.66814 -0.11200
C 	C 	0.22735 0.65437 0.66223 0.02800
C 	C 	0.28058 0.69001 0.61044 -0.07000
C 	C 	0.34119 0.65009 0.56569 -0.00700
C 	C 	0.35296 0.57174 0.57362 -0.03900
C 	C 	0.29698 0.53442 0.62684 0.01000
C 	C 	0.42238 0.52987 0.53110 0.09000
C 	C 	0.45854 0.45744 0.56494 -0.15000
C 	C 	0.27521 0.77481 0.60031 0.29300
C 	C 	0.44255 0.91966 0.05916 0.41800
C 	C 	0.42165 0.00400 0.06322 -0.13600
C 	C 	0.47348 0.04997 0.02548 0.04300
C 	C 	0.45484 0.12801 0.02650 -0.15200
C 	C 	0.38223 0.15794 0.06573 0.02400
C 	C 	0.33026 0.11264 0.10306 -0.07200
C 	C 	0.35059 0.03503 0.10289 0.02600
C 	C 	0.51179 0.17622 0.98446 0.35400
C 	C 	0.25258 0.14767 0.14283 0.09600
C 	C 	0.21478 0.21861 0.11002 -0.17100
C 	C 	0.53553 0.72101 0.17392 0.39500
C 	C 	0.57461 0.66814 0.23526 -0.11200
C 	C 	0.65437 0.66223 0.22735 0.02800
C 	C 	0.69001 0.61044 0.28058 -0.07000
C 	C 	0.65009 0.56569 0.34119 -0.00700
C 	C 	0.57174 0.57362 0.35296 -0.03900
C 	C 	0.53442 0.62684 0.29698 0.01000
C 	C 	0.52987 0.53110 0.42238 0.09000
C 	C 	0.45744 0.56494 0.45854 -0.15000
C 	C 	0.77481 0.60031 0.27521 0.29300
O 	O 	0.59913 0.37908 0.89636 -0.45900
O 	O 	0.51410 0.39893 0.00309 -0.52600
O 	O 	0.44139 0.64870 0.07074 -0.36900
O 	O 	0.49162 0.74490 0.00018 -0.57900
O 	O 	0.74453 0.15791 0.30492 -0.38200
O 	O 	0.80217 0.03739 0.31161 -0.35000
O 	O 	0.68262 0.22105 0.96613 -0.44100
O 	O 	0.61964 0.25953 0.07421 -0.50400
O 	O 	0.89636 0.59913 0.37908 -0.45900
O 	O 	0.00309 0.51410 0.39893 -0.52600
O 	O 	0.07074 0.44139 0.64870 -0.36900
O 	O 	0.00018 0.49162 0.74490 -0.57900
O 	O 	0.30492 0.74453 0.15791 -0.38200
O 	O 	0.31161 0.80217 0.03739 -0.35000
O 	O 	0.96613 0.68262 0.22105 -0.44100
O 	O 	0.07421 0.61964 0.25953 -0.50400
O 	O 	0.37908 0.89636 0.59913 -0.45900
O 	O 	0.39893 0.00309 0.51410 -0.52600
O 	O 	0.64870 0.07074 0.44139 -0.36900
O 	O 	0.74490 0.00018 0.49162 -0.57900
O 	O 	0.15791 0.30492 0.74453 -0.38200
O 	O 	0.03739 0.31161 0.80217 -0.35000
O 	O 	0.22105 0.96613 0.68262 -0.44100
O 	O 	0.25953 0.07421 0.61964 -0.50400
O 	O 	0.87908 0.09913 0.39636 -0.45600
O 	O 	0.89893 0.01410 0.50309 -0.51200
O 	O 	0.14870 0.94139 0.57074 -0.37000
O 	O 	0.24490 0.99162 0.50018 -0.57300
O 	O 	0.65791 0.24453 0.80492 -0.38200
O 	O 	0.53739 0.30217 0.81161 -0.34800
O 	O 	0.72105 0.18262 0.46613 -0.45700
O 	O 	0.75953 0.11964 0.57421 -0.50700
O 	O 	0.09913 0.39636 0.87908 -0.45600
O 	O 	0.01410 0.50309 0.89893 -0.51200
O 	O 	0.94139 0.57074 0.14870 -0.37000
O 	O 	0.99162 0.50018 0.24490 -0.57300
O 	O 	0.24453 0.80492 0.65791 -0.38200
O 	O 	0.30217 0.81161 0.53739 -0.34800
O 	O 	0.18262 0.46613 0.72105 -0.45700
O 	O 	0.11964 0.57421 0.75953 -0.50700
O 	O 	0.39636 0.87908 0.09913 -0.45600
O 	O 	0.50309 0.89893 0.01410 -0.51200
O 	O 	0.57074 0.14870 0.94139 -0.37000
O 	O 	0.50018 0.24490 0.99162 -0.57300
O 	O 	0.80492 0.65791 0.24453 -0.38200
O 	O 	0.81161 0.53739 0.30217 -0.34800
O 	O 	0.46613 0.72105 0.18262 -0.45700
O 	O 	0.57421 0.75953 0.11964 -0.50700
