data_crystal

_cell_length_a 18.30540
_cell_length_b 18.30540
_cell_length_c 18.30540
_cell_angle_alpha 60.00000
_cell_angle_beta  60.00000
_cell_angle_gamma 60.00000

_symmetry_space_group_name_	'P 1'
_symmetry_space_group_name_H-M	'P 1'

loop_
_symmetry_equiv_pos_as_xyz
  x,y,z

loop_
_atom_site_label
_atom_site_type_symbol
_atom_site_fract_x
_atom_site_fract_y
_atom_site_fract_z
_atom_site_charge
Zn	Zn	0.20620 0.38140 0.20620 1.21200
Zn	Zn	0.38140 0.20620 0.20620 1.21200
Zn	Zn	0.20620 0.20620 0.20620 1.21200
Zn	Zn	0.20620 0.20620 0.38140 1.21200
Zn	Zn	0.61860 0.79380 0.79380 1.21200
Zn	Zn	0.79380 0.61860 0.79380 1.21200
Zn	Zn	0.79380 0.79380 0.79380 1.21200
Zn	Zn	0.79380 0.79380 0.61860 1.21200
H 	H 	0.04910 0.56290 0.04910 0.04200
H 	H 	0.56290 0.04910 0.33890 0.04200
H 	H 	0.04910 0.33890 0.04910 0.04200
H 	H 	0.33890 0.04910 0.56290 0.04200
H 	H 	0.04910 0.04910 0.33890 0.04200
H 	H 	0.56290 0.33890 0.04910 0.04200
H 	H 	0.04910 0.04910 0.56290 0.04200
H 	H 	0.33890 0.56290 0.04910 0.04200
H 	H 	0.04910 0.33890 0.56290 0.04200
H 	H 	0.56290 0.04910 0.04910 0.04200
H 	H 	0.04910 0.56290 0.33890 0.04200
H 	H 	0.33890 0.04910 0.04910 0.04200
H 	H 	0.43710 0.95090 0.95090 0.04200
H 	H 	0.95090 0.43710 0.66110 0.04200
H 	H 	0.66110 0.95090 0.95090 0.04200
H 	H 	0.95090 0.66110 0.43710 0.04200
H 	H 	0.95090 0.95090 0.66110 0.04200
H 	H 	0.66110 0.43710 0.95090 0.04200
H 	H 	0.95090 0.95090 0.43710 0.04200
H 	H 	0.43710 0.66110 0.95090 0.04200
H 	H 	0.66110 0.95090 0.43710 0.04200
H 	H 	0.95090 0.43710 0.95090 0.04200
H 	H 	0.43710 0.95090 0.66110 0.04200
H 	H 	0.95090 0.66110 0.95090 0.04200
C 	C 	0.02610 0.53970 0.02610 -0.00200
C 	C 	0.53970 0.02610 0.40810 -0.00200
C 	C 	0.02610 0.40810 0.02610 -0.00200
C 	C 	0.40810 0.02610 0.53970 -0.00200
C 	C 	0.02610 0.02610 0.40810 -0.00200
C 	C 	0.53970 0.40810 0.02610 -0.00200
C 	C 	0.02610 0.02610 0.53970 -0.00100
C 	C 	0.40810 0.53970 0.02610 -0.00100
C 	C 	0.02610 0.40810 0.53970 -0.00100
C 	C 	0.53970 0.02610 0.02610 -0.00100
C 	C 	0.02610 0.53970 0.40810 -0.00100
C 	C 	0.40810 0.02610 0.02610 -0.00100
C 	C 	0.46030 0.97390 0.97390 -0.00100
C 	C 	0.97390 0.46030 0.59190 -0.00100
C 	C 	0.59190 0.97390 0.97390 -0.00100
C 	C 	0.97390 0.59190 0.46030 -0.00100
C 	C 	0.97390 0.97390 0.59190 -0.00100
C 	C 	0.59190 0.46030 0.97390 -0.00100
C 	C 	0.97390 0.97390 0.46030 -0.00100
C 	C 	0.46030 0.59190 0.97390 -0.00100
C 	C 	0.59190 0.97390 0.46030 -0.00100
C 	C 	0.97390 0.46030 0.97390 -0.00100
C 	C 	0.46030 0.97390 0.59190 -0.00100
C 	C 	0.97390 0.59190 0.97390 -0.00100
C 	C 	0.10850 0.39150 0.10850 0.37600
C 	C 	0.05500 0.44500 0.05500 -0.11900
C 	C 	0.39150 0.10850 0.39150 0.37600
C 	C 	0.44500 0.05500 0.44500 -0.11900
C 	C 	0.10850 0.10850 0.39150 0.37600
C 	C 	0.05500 0.05500 0.44500 -0.11900
C 	C 	0.39150 0.39150 0.10850 0.37600
C 	C 	0.44500 0.44500 0.05500 -0.11900
C 	C 	0.10850 0.39150 0.39150 0.37600
C 	C 	0.05500 0.44500 0.44500 -0.11900
C 	C 	0.39150 0.10850 0.10850 0.37600
C 	C 	0.44500 0.05500 0.05500 -0.11900
C 	C 	0.60850 0.89150 0.89150 0.37600
C 	C 	0.55500 0.94500 0.94500 -0.11900
C 	C 	0.89150 0.60850 0.60850 0.37600
C 	C 	0.94500 0.55500 0.55500 -0.11900
C 	C 	0.89150 0.89150 0.60850 0.37600
C 	C 	0.94500 0.94500 0.55500 -0.11900
C 	C 	0.60850 0.60850 0.89150 0.37600
C 	C 	0.55500 0.55500 0.94500 -0.11900
C 	C 	0.60850 0.89150 0.60850 0.37600
C 	C 	0.55500 0.94500 0.55500 -0.11900
C 	C 	0.89150 0.60850 0.89150 0.37600
C 	C 	0.94500 0.55500 0.94500 -0.11900
O 	O 	0.25000 0.25000 0.25000 -0.93900
O 	O 	0.75000 0.75000 0.75000 -0.93900
O 	O 	0.13390 0.42730 0.13390 -0.49500
O 	O 	0.42730 0.13390 0.30490 -0.49500
O 	O 	0.13390 0.30490 0.13390 -0.49500
O 	O 	0.30490 0.13390 0.42730 -0.49500
O 	O 	0.13390 0.13390 0.30490 -0.49500
O 	O 	0.42730 0.30490 0.13390 -0.49500
O 	O 	0.13390 0.13390 0.42730 -0.49500
O 	O 	0.30490 0.42730 0.13390 -0.49500
O 	O 	0.13390 0.30490 0.42730 -0.49500
O 	O 	0.42730 0.13390 0.13390 -0.49500
O 	O 	0.13390 0.42730 0.30490 -0.49500
O 	O 	0.30490 0.13390 0.13390 -0.49500
O 	O 	0.57270 0.86610 0.86610 -0.49500
O 	O 	0.86610 0.57270 0.69510 -0.49500
O 	O 	0.69510 0.86610 0.86610 -0.49500
O 	O 	0.86610 0.69510 0.57270 -0.49500
O 	O 	0.86610 0.86610 0.69510 -0.49500
O 	O 	0.69510 0.57270 0.86610 -0.49500
O 	O 	0.86610 0.86610 0.57270 -0.49500
O 	O 	0.57270 0.69510 0.86610 -0.49500
O 	O 	0.69510 0.86610 0.57270 -0.49500
O 	O 	0.86610 0.57270 0.86610 -0.49500
O 	O 	0.57270 0.86610 0.69510 -0.49500
O 	O 	0.86610 0.69510 0.86610 -0.49500
