data_crystal

_cell_length_a 14.62060
_cell_length_b 14.62060
_cell_length_c 14.62060
_cell_angle_alpha 109.38000
_cell_angle_beta  109.38000
_cell_angle_gamma 109.38000

_symmetry_space_group_name_	'P 1'
_symmetry_space_group_name_H-M	'P 1'

loop_
_symmetry_equiv_pos_as_xyz
  x,y,z

loop_
_atom_site_label
_atom_site_type_symbol
_atom_site_fract_x
_atom_site_fract_y
_atom_site_fract_z
_atom_site_charge
Zn	Zn	0.19922 0.44964 0.69352 1.18500
Zn	Zn	0.69352 0.19922 0.44964 1.18500
Zn	Zn	0.44964 0.69352 0.19922 1.18500
Zn	Zn	0.80078 0.55036 0.30648 1.18500
Zn	Zn	0.30648 0.80078 0.55036 1.18500
Zn	Zn	0.55036 0.30648 0.80078 1.18500
H 	H 	0.69280 0.69430 0.06000 0.11500
H 	H 	0.06000 0.69280 0.69430 0.11500
H 	H 	0.69430 0.06000 0.69280 0.11500
H 	H 	0.30720 0.30570 0.94000 0.11500
H 	H 	0.94000 0.30720 0.30570 0.11500
H 	H 	0.30570 0.94000 0.30720 0.11500
C 	C 	0.44952 0.58276 0.94952 -0.01300
C 	C 	0.47143 0.51628 0.87589 -0.01100
C 	C 	0.34609 0.57077 0.94794 0.11600
C 	C 	0.39848 0.41187 0.77005 0.11500
C 	C 	0.94952 0.44952 0.58276 -0.01300
C 	C 	0.87589 0.47143 0.51628 -0.01100
C 	C 	0.94794 0.34609 0.57077 0.11600
C 	C 	0.77005 0.39848 0.41187 0.11500
C 	C 	0.58276 0.94952 0.44952 -0.01300
C 	C 	0.51628 0.87589 0.47143 -0.01100
C 	C 	0.57077 0.94794 0.34609 0.11600
C 	C 	0.41187 0.77005 0.39848 0.11500
C 	C 	0.55048 0.41724 0.05048 -0.01300
C 	C 	0.52857 0.48372 0.12411 -0.01100
C 	C 	0.65391 0.42923 0.05206 0.11600
C 	C 	0.60152 0.58813 0.22995 0.11500
C 	C 	0.05048 0.55048 0.41724 -0.01300
C 	C 	0.12411 0.52857 0.48372 -0.01100
C 	C 	0.05206 0.65391 0.42923 0.11600
C 	C 	0.22995 0.60152 0.58813 0.11500
C 	C 	0.41724 0.05048 0.55048 -0.01300
C 	C 	0.48372 0.12411 0.52857 -0.01100
C 	C 	0.42923 0.05206 0.65391 0.11600
C 	C 	0.58813 0.22995 0.60152 0.11500
N 	N 	0.54651 0.66707 0.03822 -0.09800
N 	N 	0.62230 0.64990 0.01530 -0.11900
N 	N 	0.58229 0.56107 0.92034 -0.08900
N 	N 	0.42720 0.33521 0.73459 -0.24400
N 	N 	0.34050 0.25380 0.63180 -0.06100
N 	N 	0.26270 0.27970 0.60690 -0.05500
N 	N 	0.29633 0.37894 0.69303 -0.24100
N 	N 	0.33755 0.60937 0.03878 -0.24700
N 	N 	0.22973 0.58146 0.00321 -0.05600
N 	N 	0.17501 0.52836 0.89533 -0.05600
N 	N 	0.24704 0.51978 0.85738 -0.24100
N 	N 	0.03822 0.54651 0.66707 -0.09800
N 	N 	0.01530 0.62230 0.64990 -0.11900
N 	N 	0.92034 0.58229 0.56107 -0.08900
N 	N 	0.73459 0.42720 0.33521 -0.24400
N 	N 	0.63180 0.34050 0.25380 -0.06100
N 	N 	0.60690 0.26270 0.27970 -0.05500
N 	N 	0.69303 0.29633 0.37894 -0.24100
N 	N 	0.03878 0.33755 0.60937 -0.24700
N 	N 	0.00321 0.22973 0.58146 -0.05600
N 	N 	0.89533 0.17501 0.52836 -0.05600
N 	N 	0.85738 0.24704 0.51978 -0.24100
N 	N 	0.66707 0.03822 0.54651 -0.09800
N 	N 	0.64990 0.01530 0.62230 -0.11900
N 	N 	0.56107 0.92034 0.58229 -0.08900
N 	N 	0.33521 0.73459 0.42720 -0.24400
N 	N 	0.25380 0.63180 0.34050 -0.06100
N 	N 	0.27970 0.60690 0.26270 -0.05500
N 	N 	0.37894 0.69303 0.29633 -0.24100
N 	N 	0.60937 0.03878 0.33755 -0.24700
N 	N 	0.58146 0.00321 0.22973 -0.05600
N 	N 	0.52836 0.89533 0.17501 -0.05600
N 	N 	0.51978 0.85738 0.24704 -0.24100
N 	N 	0.45349 0.33293 0.96178 -0.09800
N 	N 	0.37770 0.35010 0.98470 -0.11900
N 	N 	0.41771 0.43893 0.07966 -0.08900
N 	N 	0.57280 0.66479 0.26541 -0.24400
N 	N 	0.65950 0.74620 0.36820 -0.06100
N 	N 	0.73730 0.72030 0.39310 -0.05500
N 	N 	0.70367 0.62106 0.30697 -0.24100
N 	N 	0.66245 0.39063 0.96122 -0.24700
N 	N 	0.77027 0.41854 0.99679 -0.05600
N 	N 	0.82499 0.47164 0.10467 -0.05600
N 	N 	0.75296 0.48022 0.14262 -0.24100
N 	N 	0.96178 0.45349 0.33293 -0.09800
N 	N 	0.98470 0.37770 0.35010 -0.11900
N 	N 	0.07966 0.41771 0.43893 -0.08900
N 	N 	0.26541 0.57280 0.66479 -0.24400
N 	N 	0.36820 0.65950 0.74620 -0.06100
N 	N 	0.39310 0.73730 0.72030 -0.05500
N 	N 	0.30697 0.70367 0.62106 -0.24100
N 	N 	0.96122 0.66245 0.39063 -0.24700
N 	N 	0.99679 0.77027 0.41854 -0.05600
N 	N 	0.10467 0.82499 0.47164 -0.05600
N 	N 	0.14262 0.75296 0.48022 -0.24100
N 	N 	0.33293 0.96178 0.45349 -0.09800
N 	N 	0.35010 0.98470 0.37770 -0.11900
N 	N 	0.43893 0.07966 0.41771 -0.08900
N 	N 	0.66479 0.26541 0.57280 -0.24400
N 	N 	0.74620 0.36820 0.65950 -0.06100
N 	N 	0.72030 0.39310 0.73730 -0.05500
N 	N 	0.62106 0.30697 0.70367 -0.24100
N 	N 	0.39063 0.96122 0.66245 -0.24700
N 	N 	0.41854 0.99679 0.77027 -0.05600
N 	N 	0.47164 0.10467 0.82499 -0.05600
N 	N 	0.48022 0.14262 0.75296 -0.24100
