data_crystal

_cell_length_a 12.66200
_cell_length_b 14.66200
_cell_length_c 15.43400
_cell_angle_alpha 90.00000
_cell_angle_beta  90.00000
_cell_angle_gamma 90.00000

_symmetry_space_group_name_	'P 1'
_symmetry_space_group_name_H-M	'P 1'

loop_
_symmetry_equiv_pos_as_xyz
  x,y,z

loop_
_atom_site_label
_atom_site_type_symbol
_atom_site_fract_x
_atom_site_fract_y
_atom_site_fract_z
_atom_site_charge
Zn	Zn	0.48863 0.97589 0.04708 1.18500
Zn	Zn	0.29826 0.83100 0.15983 1.14800
Zn	Zn	0.01137 0.02411 0.54708 1.18600
Zn	Zn	0.20174 0.16900 0.65983 1.14900
Zn	Zn	0.51137 0.47589 0.45292 1.18700
Zn	Zn	0.70174 0.33100 0.34017 1.14900
Zn	Zn	0.98863 0.52411 0.95292 1.18600
Zn	Zn	0.79826 0.66900 0.84017 1.14900
H 	H 	0.54030 0.68860 0.26290 -0.02300
H 	H 	0.77010 0.51910 0.17640 -0.02600
H 	H 	0.69280 0.74580 0.03820 -0.03800
H 	H 	0.95970 0.31140 0.76290 -0.02300
H 	H 	0.72990 0.48090 0.67640 -0.02700
H 	H 	0.80720 0.25420 0.53820 -0.03800
H 	H 	0.45970 0.18860 0.23710 -0.02300
H 	H 	0.22990 0.01910 0.32360 -0.02700
H 	H 	0.30720 0.24580 0.46180 -0.03800
H 	H 	0.04030 0.81140 0.73710 -0.02300
H 	H 	0.27010 0.98090 0.82360 -0.02700
H 	H 	0.19280 0.75420 0.96180 -0.03800
C 	C 	0.60690 0.72970 0.14960 -0.22600
C 	C 	0.59210 0.67330 0.22080 0.12900
C 	C 	0.65190 0.59480 0.23150 -0.22900
C 	C 	0.72820 0.57240 0.16930 0.12800
C 	C 	0.74300 0.62800 0.09690 -0.22700
C 	C 	0.68250 0.70740 0.08700 0.12400
C 	C 	0.54030 0.81360 0.13910 0.42500
C 	C 	0.63510 0.53250 0.30720 0.44800
C 	C 	0.82390 0.60480 0.03070 0.40100
C 	C 	0.89310 0.27030 0.64960 -0.22600
C 	C 	0.90790 0.32670 0.72080 0.13000
C 	C 	0.84810 0.40520 0.73150 -0.23000
C 	C 	0.77180 0.42760 0.66930 0.12700
C 	C 	0.75700 0.37200 0.59690 -0.22700
C 	C 	0.81750 0.29260 0.58700 0.12400
C 	C 	0.95970 0.18640 0.63910 0.42600
C 	C 	0.86490 0.46750 0.80720 0.44900
C 	C 	0.67610 0.39520 0.53070 0.39900
C 	C 	0.39310 0.22970 0.35040 -0.22600
C 	C 	0.40790 0.17330 0.27920 0.13000
C 	C 	0.34810 0.09480 0.26850 -0.23000
C 	C 	0.27180 0.07240 0.33070 0.12800
C 	C 	0.25700 0.12800 0.40310 -0.22700
C 	C 	0.31750 0.20740 0.41300 0.12400
C 	C 	0.45970 0.31360 0.36090 0.42400
C 	C 	0.36490 0.03250 0.19280 0.45000
C 	C 	0.17610 0.10480 0.46930 0.39900
C 	C 	0.10690 0.77030 0.85040 -0.22700
C 	C 	0.09210 0.82670 0.77920 0.13000
C 	C 	0.15190 0.90520 0.76850 -0.23000
C 	C 	0.22820 0.92760 0.83070 0.12800
C 	C 	0.24300 0.87200 0.90310 -0.22700
C 	C 	0.18250 0.79260 0.91300 0.12500
C 	C 	0.04030 0.68640 0.86090 0.42700
C 	C 	0.13510 0.96750 0.69280 0.45100
C 	C 	0.32390 0.89520 0.96930 0.40200
O 	O 	0.57084 0.87030 0.08211 -0.54100
O 	O 	0.46136 0.82292 0.18711 -0.52100
O 	O 	0.55447 0.55002 0.35370 -0.53900
O 	O 	0.69942 0.47075 0.31993 -0.54600
O 	O 	0.87521 0.53090 0.04004 -0.52600
O 	O 	0.84081 0.66027 0.97045 -0.54800
O 	O 	0.92916 0.12970 0.58211 -0.53900
O 	O 	0.03864 0.17708 0.68711 -0.52100
O 	O 	0.94553 0.44998 0.85370 -0.53900
O 	O 	0.80058 0.52925 0.81993 -0.54700
O 	O 	0.62479 0.46910 0.54004 -0.52700
O 	O 	0.65919 0.33973 0.47045 -0.54600
O 	O 	0.42916 0.37030 0.41789 -0.54000
O 	O 	0.53864 0.32292 0.31289 -0.52000
O 	O 	0.44553 0.05002 0.14630 -0.53800
O 	O 	0.30058 0.97075 0.18007 -0.54800
O 	O 	0.12479 0.03090 0.45996 -0.52700
O 	O 	0.15919 0.16027 0.52955 -0.54700
O 	O 	0.07084 0.62970 0.91789 -0.54000
O 	O 	0.96136 0.67708 0.81289 -0.52200
O 	O 	0.05447 0.94998 0.64630 -0.53900
O 	O 	0.19942 0.02925 0.68007 -0.54900
O 	O 	0.37521 0.96910 0.95996 -0.52600
O 	O 	0.34081 0.83973 0.02955 -0.54800
