data_crystal

_cell_length_a 14.10690
_cell_length_b 14.10690
_cell_length_c 14.10690
_cell_angle_alpha 90.00000
_cell_angle_beta  90.00000
_cell_angle_gamma 90.00000

_symmetry_space_group_name_	'P 1'
_symmetry_space_group_name_H-M	'P 1'

loop_
_symmetry_equiv_pos_as_xyz
  x,y,z

loop_
_atom_site_label
_atom_site_type_symbol
_atom_site_fract_x
_atom_site_fract_y
_atom_site_fract_z
_atom_site_charge
Zn	Zn	0.97992 0.97992 0.97992 1.24200
Zn	Zn	0.83178 0.83178 0.83178 1.17400
Zn	Zn	0.52008 0.02008 0.47992 1.24200
Zn	Zn	0.66822 0.16822 0.33178 1.17500
Zn	Zn	0.02008 0.47992 0.52008 1.24300
Zn	Zn	0.16822 0.33178 0.66822 1.17500
Zn	Zn	0.47992 0.52008 0.02008 1.24300
Zn	Zn	0.33178 0.66822 0.16822 1.17500
H 	H 	0.96090 0.20010 0.76670 0.01900
H 	H 	0.53910 0.79990 0.26670 0.01800
H 	H 	0.03910 0.70010 0.73330 0.01800
H 	H 	0.46090 0.29990 0.23330 0.01800
H 	H 	0.76670 0.96090 0.20010 0.01900
H 	H 	0.26670 0.53910 0.79990 0.01800
H 	H 	0.73330 0.03910 0.70010 0.01800
H 	H 	0.23330 0.46090 0.29990 0.01800
H 	H 	0.20010 0.76670 0.96090 0.01900
H 	H 	0.79990 0.26670 0.53910 0.01800
H 	H 	0.70010 0.73330 0.03910 0.01800
H 	H 	0.29990 0.23330 0.46090 0.01800
C 	C 	0.85130 0.11030 0.74540 -0.16400
C 	C 	0.90840 0.18680 0.72660 0.11000
C 	C 	0.87190 0.04500 0.82710 0.42000
C 	C 	0.64870 0.88970 0.24540 -0.16400
C 	C 	0.59160 0.81320 0.22660 0.11000
C 	C 	0.62810 0.95500 0.32710 0.42000
C 	C 	0.14870 0.61030 0.75460 -0.16400
C 	C 	0.09160 0.68680 0.77340 0.11000
C 	C 	0.12810 0.54500 0.67290 0.41800
C 	C 	0.35130 0.38970 0.25460 -0.16500
C 	C 	0.40840 0.31320 0.27340 0.11000
C 	C 	0.37190 0.45500 0.17290 0.41800
C 	C 	0.74540 0.85130 0.11030 -0.16400
C 	C 	0.72660 0.90840 0.18680 0.11000
C 	C 	0.82710 0.87190 0.04500 0.42000
C 	C 	0.24540 0.64870 0.88970 -0.16400
C 	C 	0.22660 0.59160 0.81320 0.11000
C 	C 	0.32710 0.62810 0.95500 0.42000
C 	C 	0.75460 0.14870 0.61030 -0.16400
C 	C 	0.77340 0.09160 0.68680 0.11000
C 	C 	0.67290 0.12810 0.54500 0.41800
C 	C 	0.25460 0.35130 0.38970 -0.16500
C 	C 	0.27340 0.40840 0.31320 0.11000
C 	C 	0.17290 0.37190 0.45500 0.41800
C 	C 	0.11030 0.74540 0.85130 -0.16400
C 	C 	0.18680 0.72660 0.90840 0.11000
C 	C 	0.04500 0.82710 0.87190 0.42000
C 	C 	0.88970 0.24540 0.64870 -0.16400
C 	C 	0.81320 0.22660 0.59160 0.11000
C 	C 	0.95500 0.32710 0.62810 0.42000
C 	C 	0.61030 0.75460 0.14870 -0.16400
C 	C 	0.68680 0.77340 0.09160 0.11000
C 	C 	0.54500 0.67290 0.12810 0.41800
C 	C 	0.38970 0.25460 0.35130 -0.16500
C 	C 	0.31320 0.27340 0.40840 0.11000
C 	C 	0.45500 0.17290 0.37190 0.41800
N 	N 	0.09000 0.02900 0.13870 0.05900
N 	N 	0.41000 0.97100 0.63870 0.06100
N 	N 	0.91000 0.52900 0.36130 0.06100
N 	N 	0.59000 0.47100 0.86130 0.06100
N 	N 	0.13870 0.09000 0.02900 0.05900
N 	N 	0.63870 0.41000 0.97100 0.06100
N 	N 	0.36130 0.91000 0.52900 0.06100
N 	N 	0.86130 0.59000 0.47100 0.06100
N 	N 	0.02900 0.13870 0.09000 0.05900
N 	N 	0.97100 0.63870 0.41000 0.06100
N 	N 	0.52900 0.36130 0.91000 0.06100
N 	N 	0.47100 0.86130 0.59000 0.06100
O 	O 	0.94510 0.06340 0.87530 -0.45100
O 	O 	0.81750 0.97760 0.84270 -0.49800
O 	O 	0.07600 0.04900 0.05790 -0.08700
O 	O 	0.12000 0.07700 0.20200 -0.07500
O 	O 	0.06900 0.94000 0.15900 -0.13800
O 	O 	0.55490 0.93660 0.37530 -0.45200
O 	O 	0.68250 0.02240 0.34270 -0.49800
O 	O 	0.42400 0.95100 0.55790 -0.08700
O 	O 	0.38000 0.92300 0.70200 -0.07300
O 	O 	0.43100 0.06000 0.65900 -0.14100
O 	O 	0.05490 0.56340 0.62470 -0.45200
O 	O 	0.18250 0.47760 0.65730 -0.49700
O 	O 	0.92400 0.54900 0.44210 -0.08600
O 	O 	0.88000 0.57700 0.29800 -0.07300
O 	O 	0.93100 0.44000 0.34100 -0.14000
O 	O 	0.44510 0.43660 0.12470 -0.45200
O 	O 	0.31750 0.52240 0.15730 -0.49700
O 	O 	0.57600 0.45100 0.94210 -0.08600
O 	O 	0.62000 0.42300 0.79800 -0.07400
O 	O 	0.56900 0.56000 0.84100 -0.14000
O 	O 	0.87530 0.94510 0.06340 -0.45100
O 	O 	0.84270 0.81750 0.97760 -0.49800
O 	O 	0.05790 0.07600 0.04900 -0.08700
O 	O 	0.20200 0.12000 0.07700 -0.07500
O 	O 	0.15900 0.06900 0.94000 -0.13800
O 	O 	0.37530 0.55490 0.93660 -0.45200
O 	O 	0.34270 0.68250 0.02240 -0.49800
O 	O 	0.55790 0.42400 0.95100 -0.08700
O 	O 	0.70200 0.38000 0.92300 -0.07300
O 	O 	0.65900 0.43100 0.06000 -0.14100
O 	O 	0.62470 0.05490 0.56340 -0.45200
O 	O 	0.65730 0.18250 0.47760 -0.49700
O 	O 	0.44210 0.92400 0.54900 -0.08600
O 	O 	0.29800 0.88000 0.57700 -0.07300
O 	O 	0.34100 0.93100 0.44000 -0.14000
O 	O 	0.12470 0.44510 0.43660 -0.45200
O 	O 	0.15730 0.31750 0.52240 -0.49700
O 	O 	0.94210 0.57600 0.45100 -0.08600
O 	O 	0.79800 0.62000 0.42300 -0.07400
O 	O 	0.84100 0.56900 0.56000 -0.14000
O 	O 	0.06340 0.87530 0.94510 -0.45100
O 	O 	0.97760 0.84270 0.81750 -0.49800
O 	O 	0.04900 0.05790 0.07600 -0.08700
O 	O 	0.07700 0.20200 0.12000 -0.07500
O 	O 	0.94000 0.15900 0.06900 -0.13800
O 	O 	0.93660 0.37530 0.55490 -0.45200
O 	O 	0.02240 0.34270 0.68250 -0.49800
O 	O 	0.95100 0.55790 0.42400 -0.08700
O 	O 	0.92300 0.70200 0.38000 -0.07300
O 	O 	0.06000 0.65900 0.43100 -0.14100
O 	O 	0.56340 0.62470 0.05490 -0.45200
O 	O 	0.47760 0.65730 0.18250 -0.49700
O 	O 	0.54900 0.44210 0.92400 -0.08600
O 	O 	0.57700 0.29800 0.88000 -0.07300
O 	O 	0.44000 0.34100 0.93100 -0.14000
O 	O 	0.43660 0.12470 0.44510 -0.45200
O 	O 	0.52240 0.15730 0.31750 -0.49700
O 	O 	0.45100 0.94210 0.57600 -0.08600
O 	O 	0.42300 0.79800 0.62000 -0.07400
O 	O 	0.56000 0.84100 0.56900 -0.14000
