data_crystal

_cell_length_a 14.47110
_cell_length_b 14.61610
_cell_length_c 17.87450
_cell_angle_alpha 90.00000
_cell_angle_beta  90.23800
_cell_angle_gamma 90.00000

_symmetry_space_group_name_	'P 1'
_symmetry_space_group_name_H-M	'P 1'

loop_
_symmetry_equiv_pos_as_xyz
  x,y,z

loop_
_atom_site_label
_atom_site_type_symbol
_atom_site_fract_x
_atom_site_fract_y
_atom_site_fract_z
_atom_site_charge
Zn	Zn	0.15721 0.59857 0.96896 1.22900
Zn	Zn	0.61288 0.84596 0.68531 1.15900
Zn	Zn	0.64835 0.89277 0.96862 1.23000
Zn	Zn	0.88843 0.36593 0.32189 1.16600
Zn	Zn	0.84279 0.09857 0.53104 1.22700
Zn	Zn	0.38712 0.34596 0.81469 1.15800
Zn	Zn	0.35165 0.39277 0.53138 1.23000
Zn	Zn	0.11157 0.86593 0.17811 1.16600
Zn	Zn	0.84279 0.40143 0.03104 1.22800
Zn	Zn	0.38712 0.15404 0.31469 1.15800
Zn	Zn	0.35165 0.10723 0.03138 1.23000
Zn	Zn	0.11157 0.63407 0.67811 1.16600
Zn	Zn	0.15721 0.90143 0.46896 1.22700
Zn	Zn	0.61288 0.65404 0.18531 1.15800
Zn	Zn	0.64835 0.60723 0.46862 1.23000
Zn	Zn	0.88843 0.13407 0.82189 1.16600
H 	H 	0.07430 0.25690 0.10490 0.02000
H 	H 	0.37520 0.77450 0.87010 0.02000
H 	H 	0.71820 0.25290 0.85170 0.00400
H 	H 	0.65600 0.39320 0.82740 0.06300
H 	H 	0.87880 0.45000 0.70610 0.07400
H 	H 	0.93140 0.30660 0.73020 -0.00200
H 	H 	0.57990 0.68600 0.80160 -0.01300
H 	H 	0.63250 0.54360 0.82960 0.07200
H 	H 	0.79560 0.55710 0.65330 0.08200
H 	H 	0.73650 0.69790 0.62930 -0.00000
H 	H 	0.92570 0.75690 0.39510 0.02100
H 	H 	0.62480 0.27450 0.62990 0.02000
H 	H 	0.28180 0.75290 0.64830 0.00400
H 	H 	0.34400 0.89320 0.67260 0.06100
H 	H 	0.12120 0.95000 0.79390 0.07100
H 	H 	0.06860 0.80660 0.76980 -0.00200
H 	H 	0.42010 0.18600 0.69840 -0.01400
H 	H 	0.36750 0.04360 0.67040 0.07400
H 	H 	0.20440 0.05710 0.84670 0.08500
H 	H 	0.26350 0.19790 0.87070 -0.00100
H 	H 	0.92570 0.74310 0.89510 0.02000
H 	H 	0.62480 0.22550 0.12990 0.02000
H 	H 	0.28180 0.74710 0.14830 0.00400
H 	H 	0.34400 0.60680 0.17260 0.06300
H 	H 	0.12120 0.55000 0.29390 0.07400
H 	H 	0.06860 0.69340 0.26980 -0.00200
H 	H 	0.42010 0.31400 0.19840 -0.01300
H 	H 	0.36750 0.45640 0.17040 0.07200
H 	H 	0.20440 0.44290 0.34670 0.08200
H 	H 	0.26350 0.30210 0.37070 -0.00000
H 	H 	0.07430 0.24310 0.60490 0.02100
H 	H 	0.37520 0.72550 0.37010 0.02000
H 	H 	0.71820 0.24710 0.35170 0.00400
H 	H 	0.65600 0.10680 0.32740 0.06100
H 	H 	0.87880 0.05000 0.20610 0.07100
H 	H 	0.93140 0.19340 0.23020 -0.00200
H 	H 	0.57990 0.81400 0.30160 -0.01400
H 	H 	0.63250 0.95640 0.32960 0.07400
H 	H 	0.79560 0.94290 0.15330 0.08500
H 	H 	0.73650 0.80210 0.12930 -0.00100
C 	C 	0.03180 0.56773 0.09314 0.27400
C 	C 	0.07191 0.47404 0.07458 0.00400
C 	C 	0.04631 0.39214 0.10811 -0.14200
C 	C 	0.96840 0.38450 0.16256 0.41100
C 	C 	0.08970 0.31272 0.08323 0.05900
C 	C 	0.15480 0.31483 0.02755 -0.08500
C 	C 	0.20070 0.22611 0.00574 0.35700
C 	C 	0.17650 0.39948 0.99568 0.01000
C 	C 	0.24506 0.41753 0.93346 0.31900
C 	C 	0.48050 0.06718 0.91028 0.27500
C 	C 	0.42563 0.97994 0.92306 0.00100
C 	C 	0.43663 0.89798 0.88461 -0.13100
C 	C 	0.51920 0.87798 0.83575 0.41900
C 	C 	0.37200 0.82863 0.89727 0.05300
C 	C 	0.30272 0.84014 0.95044 -0.07600
C 	C 	0.22760 0.76914 0.95840 0.34000
C 	C 	0.30240 0.92057 0.99189 0.00100
C 	C 	0.24312 0.94007 0.05980 0.32900
C 	C 	0.75110 0.29310 0.82150 0.06600
C 	C 	0.71310 0.37780 0.80740 -0.12300
C 	C 	0.76060 0.44020 0.76320 0.05000
C 	C 	0.84370 0.41100 0.73560 -0.12300
C 	C 	0.87560 0.32460 0.75130 0.08700
C 	C 	0.62510 0.66050 0.77130 0.09800
C 	C 	0.65690 0.57420 0.78860 -0.14300
C 	C 	0.72360 0.53280 0.74675 0.07300
C 	C 	0.75200 0.58180 0.68560 -0.14000
C 	C 	0.71610 0.66730 0.67170 0.07300
C 	C 	0.96820 0.06773 0.40686 0.26700
C 	C 	0.92809 0.97404 0.42542 0.00900
C 	C 	0.95369 0.89214 0.39189 -0.14100
C 	C 	0.03160 0.88450 0.33744 0.40900
C 	C 	0.91030 0.81272 0.41677 0.05900
C 	C 	0.84520 0.81483 0.47245 -0.08400
C 	C 	0.79930 0.72611 0.49426 0.35900
C 	C 	0.82350 0.89948 0.50432 0.00900
C 	C 	0.75494 0.91753 0.56654 0.32100
C 	C 	0.51950 0.56718 0.58972 0.27300
C 	C 	0.57437 0.47994 0.57694 0.00300
C 	C 	0.56337 0.39798 0.61539 -0.13200
C 	C 	0.48080 0.37798 0.66425 0.42000
C 	C 	0.62800 0.32863 0.60273 0.05300
C 	C 	0.69728 0.34014 0.54956 -0.07700
C 	C 	0.77240 0.26914 0.54160 0.34000
C 	C 	0.69760 0.42057 0.50811 0.00200
C 	C 	0.75688 0.44007 0.44020 0.32800
C 	C 	0.24890 0.79310 0.67850 0.06400
C 	C 	0.28690 0.87780 0.69260 -0.11900
C 	C 	0.23940 0.94020 0.73680 0.04400
C 	C 	0.15630 0.91100 0.76440 -0.11900
C 	C 	0.12440 0.82460 0.74870 0.08500
C 	C 	0.37490 0.16050 0.72870 0.10000
C 	C 	0.34310 0.07420 0.71140 -0.14700
C 	C 	0.27640 0.03280 0.75325 0.07900
C 	C 	0.24800 0.08180 0.81440 -0.14400
C 	C 	0.28390 0.16730 0.82830 0.07500
C 	C 	0.96820 0.43227 0.90686 0.27400
C 	C 	0.92809 0.52596 0.92542 0.00400
C 	C 	0.95369 0.60786 0.89189 -0.14200
C 	C 	0.03160 0.61550 0.83744 0.41100
C 	C 	0.91030 0.68728 0.91677 0.05900
C 	C 	0.84520 0.68517 0.97245 -0.08500
C 	C 	0.79930 0.77389 0.99426 0.35700
C 	C 	0.82350 0.60052 0.00432 0.01000
C 	C 	0.75494 0.58247 0.06654 0.31900
C 	C 	0.51950 0.93282 0.08972 0.27500
C 	C 	0.57437 0.02006 0.07694 0.00100
C 	C 	0.56337 0.10202 0.11539 -0.13100
C 	C 	0.48080 0.12202 0.16425 0.41900
C 	C 	0.62800 0.17137 0.10273 0.05300
C 	C 	0.69728 0.15986 0.04956 -0.07600
C 	C 	0.77240 0.23086 0.04160 0.34000
C 	C 	0.69760 0.07943 0.00811 0.00100
C 	C 	0.75688 0.05993 0.94020 0.32900
C 	C 	0.24890 0.70690 0.17850 0.06600
C 	C 	0.28690 0.62220 0.19260 -0.12300
C 	C 	0.23940 0.55980 0.23680 0.05000
C 	C 	0.15630 0.58900 0.26440 -0.12300
C 	C 	0.12440 0.67540 0.24870 0.08700
C 	C 	0.37490 0.33950 0.22870 0.09800
C 	C 	0.34310 0.42580 0.21140 -0.14300
C 	C 	0.27640 0.46720 0.25325 0.07300
C 	C 	0.24800 0.41820 0.31440 -0.14000
C 	C 	0.28390 0.33270 0.32830 0.07300
C 	C 	0.03180 0.93227 0.59314 0.26700
C 	C 	0.07191 0.02596 0.57458 0.00900
C 	C 	0.04631 0.10786 0.60811 -0.14100
C 	C 	0.96840 0.11550 0.66256 0.40900
C 	C 	0.08970 0.18728 0.58323 0.05900
C 	C 	0.15480 0.18517 0.52755 -0.08400
C 	C 	0.20070 0.27389 0.50574 0.35900
C 	C 	0.17650 0.10052 0.49568 0.00900
C 	C 	0.24506 0.08247 0.43346 0.32100
C 	C 	0.48050 0.43282 0.41028 0.27300
C 	C 	0.42563 0.52006 0.42306 0.00300
C 	C 	0.43663 0.60202 0.38461 -0.13200
C 	C 	0.51920 0.62202 0.33575 0.42000
C 	C 	0.37200 0.67137 0.39727 0.05300
C 	C 	0.30272 0.65986 0.45044 -0.07700
C 	C 	0.22760 0.73086 0.45840 0.34000
C 	C 	0.30240 0.57943 0.49189 0.00200
C 	C 	0.24312 0.55993 0.55980 0.32800
C 	C 	0.75110 0.20690 0.32150 0.06400
C 	C 	0.71310 0.12220 0.30740 -0.11900
C 	C 	0.76060 0.05980 0.26320 0.04400
C 	C 	0.84370 0.08900 0.23560 -0.11900
C 	C 	0.87560 0.17540 0.25130 0.08500
C 	C 	0.62510 0.83950 0.27130 0.10000
C 	C 	0.65690 0.92580 0.28860 -0.14700
C 	C 	0.72360 0.96720 0.24675 0.07900
C 	C 	0.75200 0.91820 0.18560 -0.14400
C 	C 	0.71610 0.83270 0.17170 0.07500
N 	N 	0.13497 0.47563 0.02056 -0.22700
N 	N 	0.36111 0.98796 0.97571 -0.23200
N 	N 	0.83188 0.26506 0.79472 -0.25400
N 	N 	0.65494 0.70897 0.71436 -0.26200
N 	N 	0.86503 0.97563 0.47944 -0.22700
N 	N 	0.63889 0.48796 0.52429 -0.23100
N 	N 	0.16812 0.76506 0.70528 -0.25300
N 	N 	0.34506 0.20897 0.78564 -0.26300
N 	N 	0.86503 0.52437 0.97944 -0.22700
N 	N 	0.63889 0.01204 0.02429 -0.23200
N 	N 	0.16812 0.73494 0.20528 -0.25400
N 	N 	0.34506 0.29103 0.28564 -0.26200
N 	N 	0.13497 0.02437 0.52056 -0.22700
N 	N 	0.36111 0.51204 0.47571 -0.23100
N 	N 	0.83188 0.23494 0.29472 -0.25300
N 	N 	0.65494 0.79103 0.21436 -0.26300
O 	O 	0.97554 0.57267 0.14359 -0.26500
O 	O 	0.06109 0.63333 0.05218 -0.39700
O 	O 	0.88822 0.38947 0.13511 -0.48400
O 	O 	0.98554 0.36848 0.22952 -0.45900
O 	O 	0.15659 0.16677 0.97262 -0.30600
O 	O 	0.28388 0.22051 0.02810 -0.45100
O 	O 	0.28121 0.35033 0.90210 -0.43200
O 	O 	0.25997 0.50062 0.91938 -0.40900
O 	O 	0.45912 0.13366 0.95334 -0.40000
O 	O 	0.53903 0.06722 0.86142 -0.27500
O 	O 	0.50769 0.86637 0.76815 -0.47800
O 	O 	0.59565 0.86884 0.86928 -0.49400
O 	O 	0.14799 0.78987 0.94340 -0.30500
O 	O 	0.25529 0.68925 0.97715 -0.44100
O 	O 	0.24448 0.02048 0.08391 -0.41900
O 	O 	0.19966 0.87346 0.08610 -0.44700
O 	O 	0.02446 0.07267 0.35641 -0.26100
O 	O 	0.93891 0.13333 0.44782 -0.39600
O 	O 	0.11178 0.88947 0.36489 -0.48500
O 	O 	0.01446 0.86848 0.27048 -0.45900
O 	O 	0.84341 0.66677 0.52738 -0.30700
O 	O 	0.71612 0.72051 0.47190 -0.45100
O 	O 	0.71879 0.85033 0.59790 -0.43200
O 	O 	0.74003 0.00062 0.58062 -0.41200
O 	O 	0.54088 0.63366 0.54666 -0.40100
O 	O 	0.46097 0.56722 0.63858 -0.27500
O 	O 	0.49231 0.36637 0.73185 -0.47800
O 	O 	0.40435 0.36884 0.63072 -0.49400
O 	O 	0.85201 0.28987 0.55660 -0.30500
O 	O 	0.74471 0.18925 0.52285 -0.44100
O 	O 	0.75552 0.52048 0.41609 -0.42000
O 	O 	0.80034 0.37346 0.41390 -0.44700
O 	O 	0.02446 0.42733 0.85641 -0.26500
O 	O 	0.93891 0.36667 0.94782 -0.39700
O 	O 	0.11178 0.61053 0.86489 -0.48400
O 	O 	0.01446 0.63152 0.77048 -0.45900
O 	O 	0.84341 0.83323 0.02738 -0.30600
O 	O 	0.71612 0.77949 0.97190 -0.45100
O 	O 	0.71879 0.64967 0.09790 -0.43200
O 	O 	0.74003 0.49938 0.08062 -0.40900
O 	O 	0.54088 0.86634 0.04666 -0.40000
O 	O 	0.46097 0.93278 0.13858 -0.27500
O 	O 	0.49231 0.13363 0.23185 -0.47800
O 	O 	0.40435 0.13116 0.13072 -0.49400
O 	O 	0.85201 0.21013 0.05660 -0.30500
O 	O 	0.74471 0.31075 0.02285 -0.44100
O 	O 	0.75552 0.97952 0.91609 -0.41900
O 	O 	0.80034 0.12654 0.91390 -0.44700
O 	O 	0.97554 0.92733 0.64359 -0.26100
O 	O 	0.06109 0.86667 0.55218 -0.39600
O 	O 	0.88822 0.11053 0.63511 -0.48500
O 	O 	0.98554 0.13152 0.72952 -0.45900
O 	O 	0.15659 0.33323 0.47262 -0.30700
O 	O 	0.28388 0.27949 0.52810 -0.45100
O 	O 	0.28121 0.14967 0.40210 -0.43200
O 	O 	0.25997 0.99938 0.41938 -0.41200
O 	O 	0.45912 0.36634 0.45334 -0.40100
O 	O 	0.53903 0.43278 0.36142 -0.27500
O 	O 	0.50769 0.63363 0.26815 -0.47800
O 	O 	0.59565 0.63116 0.36928 -0.49400
O 	O 	0.14799 0.71013 0.44340 -0.30500
O 	O 	0.25529 0.81075 0.47715 -0.44100
O 	O 	0.24448 0.47952 0.58391 -0.42000
O 	O 	0.19966 0.62654 0.58610 -0.44700
