data_crystal

_cell_length_a 13.95170
_cell_length_b 16.54740
_cell_length_c 16.54740
_cell_angle_alpha 103.39500
_cell_angle_beta  110.00900
_cell_angle_gamma 110.00900

_symmetry_space_group_name_	'P 1'
_symmetry_space_group_name_H-M	'P 1'

loop_
_symmetry_equiv_pos_as_xyz
  x,y,z

loop_
_atom_site_label
_atom_site_type_symbol
_atom_site_fract_x
_atom_site_fract_y
_atom_site_fract_z
_atom_site_charge
Zn	Zn	0.28775 0.34755 0.20573 1.21500
Zn	Zn	0.53922 0.35932 0.27862 1.23800
Zn	Zn	0.21225 0.79427 0.65245 1.21500
Zn	Zn	0.96078 0.72138 0.64068 1.23800
Zn	Zn	0.71225 0.65245 0.79427 1.21500
Zn	Zn	0.46078 0.64068 0.72138 1.23800
Zn	Zn	0.78775 0.20573 0.34755 1.21500
Zn	Zn	0.03922 0.27862 0.35932 1.23800
H 	H 	0.65440 0.50590 0.11610 0.09900
H 	H 	0.13340 0.05720 0.03640 0.11400
H 	H 	0.36310 0.48200 0.55320 0.08000
H 	H 	0.05540 0.34900 0.15540 -0.02400
H 	H 	0.86460 0.25820 0.03720 0.10100
H 	H 	0.97890 0.12520 0.88080 0.11500
H 	H 	0.15690 0.21710 0.00090 -0.00800
H 	H 	0.27810 0.39330 0.01710 0.25200
H 	H 	0.50710 0.15750 0.13090 0.27100
H 	H 	0.84560 0.88390 0.49410 0.09900
H 	H 	0.36660 0.96360 0.94280 0.11000
H 	H 	0.13690 0.44680 0.51800 0.08000
H 	H 	0.44460 0.84460 0.65100 -0.02800
H 	H 	0.63540 0.96280 0.74180 0.10700
H 	H 	0.52110 0.11920 0.87480 0.12000
H 	H 	0.34310 0.99910 0.78290 -0.01000
H 	H 	0.22190 0.98290 0.60670 0.25700
H 	H 	0.99290 0.86910 0.84250 0.26300
H 	H 	0.34560 0.49410 0.88390 0.09900
H 	H 	0.86660 0.94280 0.96360 0.11400
H 	H 	0.63690 0.51800 0.44680 0.08000
H 	H 	0.94460 0.65100 0.84460 -0.02400
H 	H 	0.13540 0.74180 0.96280 0.10100
H 	H 	0.02110 0.87480 0.11920 0.11500
H 	H 	0.84310 0.78290 0.99910 -0.00800
H 	H 	0.72190 0.60670 0.98290 0.25200
H 	H 	0.49290 0.84250 0.86910 0.27100
H 	H 	0.15440 0.11610 0.50590 0.09900
H 	H 	0.63340 0.03640 0.05720 0.11000
H 	H 	0.86310 0.55320 0.48200 0.08000
H 	H 	0.55540 0.15540 0.34900 -0.02800
H 	H 	0.36460 0.03720 0.25820 0.10700
H 	H 	0.47890 0.88080 0.12520 0.12000
H 	H 	0.65690 0.00090 0.21710 -0.01000
H 	H 	0.77810 0.01710 0.39330 0.25700
H 	H 	0.00710 0.13090 0.15750 0.26300
C 	C 	0.46350 0.41730 0.12850 0.45000
C 	C 	0.48190 0.46030 0.06230 -0.16600
C 	C 	0.59080 0.50390 0.06810 -0.09700
C 	C 	0.39120 0.45750 0.99030 0.24200
C 	C 	0.34680 0.18420 0.14740 0.40100
C 	C 	0.30070 0.09290 0.06710 -0.13900
C 	C 	0.18100 0.03890 0.01510 -0.12000
C 	C 	0.36880 0.06400 0.03820 0.24600
C 	C 	0.25770 0.37090 0.37810 0.40200
C 	C 	0.38470 0.43830 0.43830 -0.15700
C 	C 	0.46820 0.44540 0.40440 0.22400
C 	C 	0.42000 0.49090 0.53230 -0.12700
C 	C 	0.03830 0.30180 0.09980 0.08700
C 	C 	0.92530 0.24890 0.03030 -0.16000
C 	C 	0.90550 0.18200 0.95040 0.16000
C 	C 	0.99210 0.16930 0.93670 -0.19700
C 	C 	0.09550 0.22420 0.00880 0.13400
C 	C 	0.03650 0.87150 0.58270 0.45300
C 	C 	0.01810 0.93770 0.53970 -0.16000
C 	C 	0.90920 0.93190 0.49610 -0.10000
C 	C 	0.10880 0.00970 0.54250 0.24000
C 	C 	0.15320 0.85260 0.81580 0.40400
C 	C 	0.19930 0.93290 0.90710 -0.14800
C 	C 	0.31900 0.98490 0.96110 -0.10000
C 	C 	0.13120 0.96180 0.93600 0.26300
C 	C 	0.24230 0.62190 0.62910 0.40200
C 	C 	0.11530 0.56170 0.56170 -0.15700
C 	C 	0.03180 0.59560 0.55460 0.22500
C 	C 	0.08000 0.46770 0.50910 -0.12800
C 	C 	0.46170 0.90020 0.69820 0.10400
C 	C 	0.57470 0.96970 0.75110 -0.18400
C 	C 	0.59450 0.04960 0.81800 0.17500
C 	C 	0.50790 0.06330 0.83070 -0.21000
C 	C 	0.40450 0.99120 0.77580 0.14500
C 	C 	0.53650 0.58270 0.87150 0.45000
C 	C 	0.51810 0.53970 0.93770 -0.16600
C 	C 	0.40920 0.49610 0.93190 -0.09700
C 	C 	0.60880 0.54250 0.00970 0.24200
C 	C 	0.65320 0.81580 0.85260 0.40100
C 	C 	0.69930 0.90710 0.93290 -0.13900
C 	C 	0.81900 0.96110 0.98490 -0.12000
C 	C 	0.63120 0.93600 0.96180 0.24600
C 	C 	0.74230 0.62910 0.62190 0.40200
C 	C 	0.61530 0.56170 0.56170 -0.15700
C 	C 	0.53180 0.55460 0.59560 0.22400
C 	C 	0.58000 0.50910 0.46770 -0.12700
C 	C 	0.96170 0.69820 0.90020 0.08700
C 	C 	0.07470 0.75110 0.96970 -0.16000
C 	C 	0.09450 0.81800 0.04960 0.16000
C 	C 	0.00790 0.83070 0.06330 -0.19700
C 	C 	0.90450 0.77580 0.99120 0.13400
C 	C 	0.96350 0.12850 0.41730 0.45300
C 	C 	0.98190 0.06230 0.46030 -0.16000
C 	C 	0.09080 0.06810 0.50390 -0.10000
C 	C 	0.89120 0.99030 0.45750 0.24000
C 	C 	0.84680 0.14740 0.18420 0.40400
C 	C 	0.80070 0.06710 0.09290 -0.14800
C 	C 	0.68100 0.01510 0.03890 -0.10000
C 	C 	0.86880 0.03820 0.06400 0.26300
C 	C 	0.75770 0.37810 0.37090 0.40200
C 	C 	0.88470 0.43830 0.43830 -0.15700
C 	C 	0.96820 0.40440 0.44540 0.22500
C 	C 	0.92000 0.53230 0.49090 -0.12800
C 	C 	0.53830 0.09980 0.30180 0.10400
C 	C 	0.42530 0.03030 0.24890 -0.18400
C 	C 	0.40550 0.95040 0.18200 0.17500
C 	C 	0.49210 0.93670 0.16930 -0.21000
C 	C 	0.59550 0.00880 0.22420 0.14500
N 	N 	0.12540 0.28790 0.09070 -0.25800
N 	N 	0.78460 0.11130 0.87510 -0.08700
N 	N 	0.37460 0.90930 0.71210 -0.26300
N 	N 	0.71540 0.12490 0.88870 -0.09000
N 	N 	0.87460 0.71210 0.90930 -0.25800
N 	N 	0.21540 0.88870 0.12490 -0.08700
N 	N 	0.62540 0.09070 0.28790 -0.26300
N 	N 	0.28460 0.87510 0.11130 -0.09000
O 	O 	0.36520 0.37820 0.11880 -0.50700
O 	O 	0.54810 0.42190 0.19010 -0.47500
O 	O 	0.28000 0.41540 0.97640 -0.40400
O 	O 	0.28240 0.21190 0.16350 -0.44300
O 	O 	0.45840 0.22990 0.19310 -0.49000
O 	O 	0.48530 0.10950 0.08450 -0.41200
O 	O 	0.44030 0.39520 0.31720 -0.60100
O 	O 	0.21760 0.32730 0.29250 -0.49200
O 	O 	0.19820 0.36240 0.42100 -0.48400
O 	O 	0.13480 0.88120 0.62180 -0.50700
O 	O 	0.95190 0.80990 0.57810 -0.47800
O 	O 	0.22000 0.02360 0.58460 -0.41100
O 	O 	0.21760 0.83650 0.78810 -0.44300
O 	O 	0.04160 0.80690 0.77010 -0.48700
O 	O 	0.01470 0.91550 0.89050 -0.40400
O 	O 	0.05970 0.68280 0.60480 -0.60000
O 	O 	0.28240 0.70750 0.67270 -0.49200
O 	O 	0.30180 0.57900 0.63760 -0.48300
O 	O 	0.63480 0.62180 0.88120 -0.50700
O 	O 	0.45190 0.57810 0.80990 -0.47500
O 	O 	0.72000 0.58460 0.02360 -0.40400
O 	O 	0.71760 0.78810 0.83650 -0.44300
O 	O 	0.54160 0.77010 0.80690 -0.49000
O 	O 	0.51470 0.89050 0.91550 -0.41200
O 	O 	0.55970 0.60480 0.68280 -0.60100
O 	O 	0.78240 0.67270 0.70750 -0.49200
O 	O 	0.80180 0.63760 0.57900 -0.48400
O 	O 	0.86520 0.11880 0.37820 -0.50700
O 	O 	0.04810 0.19010 0.42190 -0.47800
O 	O 	0.78000 0.97640 0.41540 -0.41100
O 	O 	0.78240 0.16350 0.21190 -0.44300
O 	O 	0.95840 0.19310 0.22990 -0.48700
O 	O 	0.98530 0.08450 0.10950 -0.40400
O 	O 	0.94030 0.31720 0.39520 -0.60000
O 	O 	0.71760 0.29250 0.32730 -0.49200
O 	O 	0.69820 0.42100 0.36240 -0.48300
