data_crystal

_cell_length_a 10.52360
_cell_length_b 25.76800
_cell_length_c 25.95070
_cell_angle_alpha 90.00000
_cell_angle_beta  90.00000
_cell_angle_gamma 90.00000

_symmetry_space_group_name_	'P 1'
_symmetry_space_group_name_H-M	'P 1'

loop_
_symmetry_equiv_pos_as_xyz
  x,y,z

loop_
_atom_site_label
_atom_site_type_symbol
_atom_site_fract_x
_atom_site_fract_y
_atom_site_fract_z
_atom_site_charge
Zn	Zn	0.43784 0.42153 0.13148 1.17600
Zn	Zn	0.20121 0.50389 0.11123 1.23400
Zn	Zn	0.93784 0.57847 0.36852 1.17500
Zn	Zn	0.70121 0.49611 0.38877 1.23300
Zn	Zn	0.56216 0.92153 0.86852 1.17500
Zn	Zn	0.79879 0.00389 0.88877 1.23300
Zn	Zn	0.06216 0.07847 0.63148 1.17500
Zn	Zn	0.29879 0.99611 0.61123 1.23300
Zn	Zn	0.56216 0.57847 0.86852 1.17500
Zn	Zn	0.79879 0.49611 0.88877 1.23300
Zn	Zn	0.06216 0.42153 0.63148 1.17500
Zn	Zn	0.29879 0.50389 0.61123 1.23300
Zn	Zn	0.43784 0.07847 0.13148 1.17500
Zn	Zn	0.20121 0.99611 0.11123 1.23300
Zn	Zn	0.93784 0.92153 0.36852 1.17500
Zn	Zn	0.70121 0.00389 0.38877 1.23300
H 	H 	0.50080 0.62450 0.13150 0.04700
H 	H 	0.71860 0.66530 0.25400 0.04100
H 	H 	0.53970 0.52670 0.25230 0.03800
H 	H 	0.87160 0.54350 0.00860 0.04600
H 	H 	0.87080 0.63330 0.13630 0.05700
H 	H 	0.61900 0.66150 0.02150 0.04600
H 	H 	0.00080 0.37550 0.36850 0.04700
H 	H 	0.21860 0.33470 0.24600 0.04100
H 	H 	0.03970 0.47330 0.24770 0.03800
H 	H 	0.37160 0.45650 0.49140 0.04600
H 	H 	0.37080 0.36670 0.36370 0.05700
H 	H 	0.11900 0.33850 0.47850 0.04700
H 	H 	0.49920 0.12450 0.86850 0.04700
H 	H 	0.28140 0.16530 0.74600 0.04100
H 	H 	0.46030 0.02670 0.74770 0.03800
H 	H 	0.12840 0.04350 0.99140 0.04600
H 	H 	0.12920 0.13330 0.86370 0.05700
H 	H 	0.38100 0.16150 0.97850 0.04600
H 	H 	0.99920 0.87550 0.63150 0.04800
H 	H 	0.78140 0.83470 0.75400 0.04100
H 	H 	0.96030 0.97330 0.75230 0.03900
H 	H 	0.62840 0.95650 0.50860 0.04600
H 	H 	0.62920 0.86670 0.63630 0.05700
H 	H 	0.88100 0.83850 0.52150 0.04700
H 	H 	0.49920 0.37550 0.86850 0.04700
H 	H 	0.28140 0.33470 0.74600 0.04100
H 	H 	0.46030 0.47330 0.74770 0.03800
H 	H 	0.12840 0.45650 0.99140 0.04600
H 	H 	0.12920 0.36670 0.86370 0.05700
H 	H 	0.38100 0.33850 0.97850 0.04600
H 	H 	0.99920 0.62450 0.63150 0.04700
H 	H 	0.78140 0.66530 0.75400 0.04100
H 	H 	0.96030 0.52670 0.75230 0.03800
H 	H 	0.62840 0.54350 0.50860 0.04600
H 	H 	0.62920 0.63330 0.63630 0.05700
H 	H 	0.88100 0.66150 0.52150 0.04700
H 	H 	0.50080 0.87550 0.13150 0.04700
H 	H 	0.71860 0.83470 0.25400 0.04100
H 	H 	0.53970 0.97330 0.25230 0.03800
H 	H 	0.87160 0.95650 0.00860 0.04600
H 	H 	0.87080 0.86670 0.13630 0.05700
H 	H 	0.61900 0.83850 0.02150 0.04600
H 	H 	0.00080 0.12450 0.36850 0.04800
H 	H 	0.21860 0.16530 0.24600 0.04100
H 	H 	0.03970 0.02670 0.24770 0.03900
H 	H 	0.37160 0.04350 0.49140 0.04600
H 	H 	0.37080 0.13330 0.36370 0.05700
H 	H 	0.11900 0.16150 0.47850 0.04700
H 	H 	0.59400 0.75000 0.22050 0.06000
H 	H 	0.74480 0.75000 0.05200 0.06200
H 	H 	0.09400 0.25000 0.27950 0.06000
H 	H 	0.24480 0.25000 0.44800 0.06200
H 	H 	0.40600 0.25000 0.77950 0.06000
H 	H 	0.25520 0.25000 0.94800 0.06200
H 	H 	0.90600 0.75000 0.72050 0.06000
H 	H 	0.75520 0.75000 0.55200 0.06200
C 	C 	0.41880 0.53243 0.16261 0.35900
C 	C 	0.50550 0.57044 0.18841 -0.10900
C 	C 	0.53520 0.61695 0.16451 -0.00500
C 	C 	0.61520 0.65282 0.18855 -0.01300
C 	C 	0.66420 0.64120 0.23720 -0.00400
C 	C 	0.55730 0.55912 0.23645 0.04000
C 	C 	0.00970 0.55902 0.09351 0.30800
C 	C 	0.89120 0.58599 0.07400 -0.07200
C 	C 	0.83880 0.57225 0.02729 0.01800
C 	C 	0.83820 0.62595 0.10289 -0.02800
C 	C 	0.68180 0.58686 0.95648 0.38100
C 	C 	0.73670 0.60095 0.00756 -0.11000
C 	C 	0.68770 0.64205 0.03531 -0.01300
C 	C 	0.73760 0.65553 0.08348 -0.00200
C 	C 	0.69470 0.70283 0.11089 0.00600
C 	C 	0.64660 0.70264 0.16174 0.01100
C 	C 	0.63390 0.59464 0.26114 -0.11100
C 	C 	0.68960 0.58017 0.31263 0.39500
C 	C 	0.91880 0.46757 0.33739 0.35800
C 	C 	0.00550 0.42956 0.31159 -0.10800
C 	C 	0.03520 0.38305 0.33549 -0.00600
C 	C 	0.11520 0.34718 0.31145 -0.01300
C 	C 	0.16420 0.35880 0.26280 -0.00500
C 	C 	0.05730 0.44088 0.26355 0.04000
C 	C 	0.50970 0.44098 0.40649 0.30700
C 	C 	0.39120 0.41401 0.42600 -0.07100
C 	C 	0.33880 0.42775 0.47271 0.01700
C 	C 	0.33820 0.37405 0.39711 -0.02800
C 	C 	0.18180 0.41314 0.54352 0.38100
C 	C 	0.23670 0.39905 0.49244 -0.10900
C 	C 	0.18770 0.35795 0.46469 -0.01300
C 	C 	0.23760 0.34447 0.41652 -0.00200
C 	C 	0.19470 0.29717 0.38911 0.00600
C 	C 	0.14660 0.29736 0.33826 0.01100
C 	C 	0.13390 0.40536 0.23886 -0.11100
C 	C 	0.18960 0.41983 0.18737 0.39500
C 	C 	0.58120 0.03243 0.83739 0.35800
C 	C 	0.49450 0.07044 0.81159 -0.10900
C 	C 	0.46480 0.11695 0.83549 -0.00500
C 	C 	0.38480 0.15282 0.81145 -0.01300
C 	C 	0.33580 0.14120 0.76280 -0.00500
C 	C 	0.44270 0.05912 0.76355 0.04000
C 	C 	0.99030 0.05902 0.90649 0.30700
C 	C 	0.10880 0.08599 0.92600 -0.07000
C 	C 	0.16120 0.07225 0.97271 0.01700
C 	C 	0.16180 0.12595 0.89711 -0.02800
C 	C 	0.31820 0.08686 0.04352 0.38200
C 	C 	0.26330 0.10095 0.99244 -0.11000
C 	C 	0.31230 0.14205 0.96469 -0.01300
C 	C 	0.26240 0.15553 0.91652 -0.00200
C 	C 	0.30530 0.20283 0.88911 0.00600
C 	C 	0.35340 0.20264 0.83826 0.01100
C 	C 	0.36610 0.09464 0.73886 -0.11100
C 	C 	0.31040 0.08017 0.68737 0.39500
C 	C 	0.08120 0.96757 0.66261 0.35600
C 	C 	0.99450 0.92956 0.68841 -0.10600
C 	C 	0.96480 0.88305 0.66451 -0.00700
C 	C 	0.88480 0.84718 0.68855 -0.01200
C 	C 	0.83580 0.85880 0.73720 -0.00500
C 	C 	0.94270 0.94088 0.73645 0.03800
C 	C 	0.49030 0.94098 0.59351 0.30700
C 	C 	0.60880 0.91401 0.57400 -0.07100
C 	C 	0.66120 0.92775 0.52729 0.01700
C 	C 	0.66180 0.87405 0.60289 -0.02800
C 	C 	0.81820 0.91314 0.45648 0.38100
C 	C 	0.76330 0.89905 0.50756 -0.10900
C 	C 	0.81230 0.85795 0.53531 -0.01300
C 	C 	0.76240 0.84447 0.58348 -0.00200
C 	C 	0.80530 0.79717 0.61089 0.00600
C 	C 	0.85340 0.79736 0.66174 0.01100
C 	C 	0.86610 0.90536 0.76114 -0.11000
C 	C 	0.81040 0.91983 0.81263 0.39500
C 	C 	0.58120 0.46757 0.83739 0.35900
C 	C 	0.49450 0.42956 0.81159 -0.10900
C 	C 	0.46480 0.38305 0.83549 -0.00500
C 	C 	0.38480 0.34718 0.81145 -0.01300
C 	C 	0.33580 0.35880 0.76280 -0.00400
C 	C 	0.44270 0.44088 0.76355 0.04000
C 	C 	0.99030 0.44098 0.90649 0.30800
C 	C 	0.10880 0.41401 0.92600 -0.07200
C 	C 	0.16120 0.42775 0.97271 0.01800
C 	C 	0.16180 0.37405 0.89711 -0.02800
C 	C 	0.31820 0.41314 0.04352 0.38100
C 	C 	0.26330 0.39905 0.99244 -0.11000
C 	C 	0.31230 0.35795 0.96469 -0.01300
C 	C 	0.26240 0.34447 0.91652 -0.00200
C 	C 	0.30530 0.29717 0.88911 0.00600
C 	C 	0.35340 0.29736 0.83826 0.01100
C 	C 	0.36610 0.40536 0.73886 -0.11100
C 	C 	0.31040 0.41983 0.68737 0.39500
C 	C 	0.08120 0.53243 0.66261 0.35800
C 	C 	0.99450 0.57044 0.68841 -0.10800
C 	C 	0.96480 0.61695 0.66451 -0.00600
C 	C 	0.88480 0.65282 0.68855 -0.01300
C 	C 	0.83580 0.64120 0.73720 -0.00500
C 	C 	0.94270 0.55912 0.73645 0.04000
C 	C 	0.49030 0.55902 0.59351 0.30700
C 	C 	0.60880 0.58599 0.57400 -0.07100
C 	C 	0.66120 0.57225 0.52729 0.01700
C 	C 	0.66180 0.62595 0.60289 -0.02800
C 	C 	0.81820 0.58686 0.45648 0.38100
C 	C 	0.76330 0.60095 0.50756 -0.10900
C 	C 	0.81230 0.64205 0.53531 -0.01300
C 	C 	0.76240 0.65553 0.58348 -0.00200
C 	C 	0.80530 0.70283 0.61089 0.00600
C 	C 	0.85340 0.70264 0.66174 0.01100
C 	C 	0.86610 0.59464 0.76114 -0.11100
C 	C 	0.81040 0.58017 0.81263 0.39500
C 	C 	0.41880 0.96757 0.16261 0.35800
C 	C 	0.50550 0.92956 0.18841 -0.10900
C 	C 	0.53520 0.88305 0.16451 -0.00500
C 	C 	0.61520 0.84718 0.18855 -0.01300
C 	C 	0.66420 0.85880 0.23720 -0.00500
C 	C 	0.55730 0.94088 0.23645 0.04000
C 	C 	0.00970 0.94098 0.09351 0.30700
C 	C 	0.89120 0.91401 0.07400 -0.07000
C 	C 	0.83880 0.92775 0.02729 0.01700
C 	C 	0.83820 0.87405 0.10289 -0.02800
C 	C 	0.68180 0.91314 0.95648 0.38200
C 	C 	0.73670 0.89905 0.00756 -0.11000
C 	C 	0.68770 0.85795 0.03531 -0.01300
C 	C 	0.73760 0.84447 0.08348 -0.00200
C 	C 	0.69470 0.79717 0.11089 0.00600
C 	C 	0.64660 0.79736 0.16174 0.01100
C 	C 	0.63390 0.90536 0.26114 -0.11100
C 	C 	0.68960 0.91983 0.31263 0.39500
C 	C 	0.91880 0.03243 0.33739 0.35600
C 	C 	0.00550 0.07044 0.31159 -0.10600
C 	C 	0.03520 0.11695 0.33549 -0.00700
C 	C 	0.11520 0.15282 0.31145 -0.01200
C 	C 	0.16420 0.14120 0.26280 -0.00500
C 	C 	0.05730 0.05912 0.26355 0.03800
C 	C 	0.50970 0.05902 0.40649 0.30700
C 	C 	0.39120 0.08599 0.42600 -0.07100
C 	C 	0.33880 0.07225 0.47271 0.01700
C 	C 	0.33820 0.12595 0.39711 -0.02800
C 	C 	0.18180 0.08686 0.54352 0.38100
C 	C 	0.23670 0.10095 0.49244 -0.10900
C 	C 	0.18770 0.14205 0.46469 -0.01300
C 	C 	0.23760 0.15553 0.41652 -0.00200
C 	C 	0.19470 0.20283 0.38911 0.00600
C 	C 	0.14660 0.20264 0.33826 0.01100
C 	C 	0.13390 0.09464 0.23886 -0.11000
C 	C 	0.18960 0.08017 0.18737 0.39500
C 	C 	0.62480 0.75000 0.18607 -0.08000
C 	C 	0.71540 0.75000 0.08657 -0.07600
C 	C 	0.12480 0.25000 0.31393 -0.08000
C 	C 	0.21540 0.25000 0.41343 -0.07600
C 	C 	0.37520 0.25000 0.81393 -0.08000
C 	C 	0.28460 0.25000 0.91343 -0.07600
C 	C 	0.87520 0.75000 0.68607 -0.08000
C 	C 	0.78460 0.75000 0.58657 -0.07600
O 	O 	0.04910 0.56849 0.13722 -0.34300
O 	O 	0.06400 0.52703 0.06399 -0.42400
O 	O 	0.34240 0.54993 0.12985 -0.47400
O 	O 	0.42630 0.48546 0.17704 -0.50400
O 	O 	0.70590 0.54352 0.93653 -0.55000
O 	O 	0.60730 0.61810 0.93449 -0.47000
O 	O 	0.63990 0.54253 0.33526 -0.48700
O 	O 	0.78240 0.60707 0.32896 -0.46600
O 	O 	0.54910 0.43151 0.36278 -0.34300
O 	O 	0.56400 0.47297 0.43601 -0.42400
O 	O 	0.84240 0.45007 0.37015 -0.47400
O 	O 	0.92630 0.51454 0.32296 -0.50400
O 	O 	0.20590 0.45648 0.56347 -0.55000
O 	O 	0.10730 0.38190 0.56551 -0.47000
O 	O 	0.13990 0.45747 0.16474 -0.48700
O 	O 	0.28240 0.39293 0.17104 -0.46600
O 	O 	0.95090 0.06849 0.86278 -0.34300
O 	O 	0.93600 0.02703 0.93601 -0.42500
O 	O 	0.65760 0.04993 0.87015 -0.47400
O 	O 	0.57370 0.98546 0.82296 -0.50300
O 	O 	0.29410 0.04352 0.06347 -0.54900
O 	O 	0.39270 0.11810 0.06551 -0.47000
O 	O 	0.36010 0.04253 0.66474 -0.48700
O 	O 	0.21760 0.10707 0.67104 -0.46600
O 	O 	0.45090 0.93151 0.63722 -0.34300
O 	O 	0.43600 0.97297 0.56399 -0.42400
O 	O 	0.15760 0.95007 0.62985 -0.47400
O 	O 	0.07370 0.01454 0.67704 -0.50200
O 	O 	0.79410 0.95648 0.43653 -0.54900
O 	O 	0.89270 0.88190 0.43449 -0.47000
O 	O 	0.86010 0.95747 0.83526 -0.48600
O 	O 	0.71760 0.89293 0.82896 -0.46600
O 	O 	0.95090 0.43151 0.86278 -0.34300
O 	O 	0.93600 0.47297 0.93601 -0.42400
O 	O 	0.65760 0.45007 0.87015 -0.47400
O 	O 	0.57370 0.51454 0.82296 -0.50400
O 	O 	0.29410 0.45648 0.06347 -0.55000
O 	O 	0.39270 0.38190 0.06551 -0.47000
O 	O 	0.36010 0.45747 0.66474 -0.48700
O 	O 	0.21760 0.39293 0.67104 -0.46600
O 	O 	0.45090 0.56849 0.63722 -0.34300
O 	O 	0.43600 0.52703 0.56399 -0.42400
O 	O 	0.15760 0.54993 0.62985 -0.47400
O 	O 	0.07370 0.48546 0.67704 -0.50400
O 	O 	0.79410 0.54352 0.43653 -0.55000
O 	O 	0.89270 0.61810 0.43449 -0.47000
O 	O 	0.86010 0.54253 0.83526 -0.48700
O 	O 	0.71760 0.60707 0.82896 -0.46600
O 	O 	0.04910 0.93151 0.13722 -0.34300
O 	O 	0.06400 0.97297 0.06399 -0.42500
O 	O 	0.34240 0.95007 0.12985 -0.47400
O 	O 	0.42630 0.01454 0.17704 -0.50300
O 	O 	0.70590 0.95648 0.93653 -0.54900
O 	O 	0.60730 0.88190 0.93449 -0.47000
O 	O 	0.63990 0.95747 0.33526 -0.48700
O 	O 	0.78240 0.89293 0.32896 -0.46600
O 	O 	0.54910 0.06849 0.36278 -0.34300
O 	O 	0.56400 0.02703 0.43601 -0.42400
O 	O 	0.84240 0.04993 0.37015 -0.47400
O 	O 	0.92630 0.98546 0.32296 -0.50200
O 	O 	0.20590 0.04352 0.56347 -0.54900
O 	O 	0.10730 0.11810 0.56551 -0.47000
O 	O 	0.13990 0.04253 0.16474 -0.48600
O 	O 	0.28240 0.10707 0.17104 -0.46600
