data_crystal

_cell_length_a 10.33220
_cell_length_b 10.33220
_cell_length_c 18.98100
_cell_angle_alpha 81.09000
_cell_angle_beta  81.09000
_cell_angle_gamma 82.41010

_symmetry_space_group_name_	'P 1'
_symmetry_space_group_name_H-M	'P 1'

loop_
_symmetry_equiv_pos_as_xyz
  x,y,z

loop_
_atom_site_label
_atom_site_type_symbol
_atom_site_fract_x
_atom_site_fract_y
_atom_site_fract_z
_atom_site_charge
Ca	Ca	0.07677 0.85235 0.06595 1.50100
Ca	Ca	0.14765 0.92323 0.43405 1.50200
Ca	Ca	0.92323 0.14765 0.93405 1.50100
Ca	Ca	0.85235 0.07677 0.56595 1.50200
Ca	Ca	0.19807 0.80193 0.25000 1.51600
Ca	Ca	0.80193 0.19807 0.75000 1.51600
H 	H 	0.63590 0.81890 0.22860 0.00100
H 	H 	0.55990 0.88390 0.43480 0.02500
H 	H 	0.38020 0.13160 0.15480 0.24500
H 	H 	0.52690 0.08050 0.12870 0.23100
H 	H 	0.44610 0.00010 0.19380 0.24800
H 	H 	0.91990 0.92730 0.32200 -0.01300
H 	H 	0.50620 0.77960 0.13470 0.25600
H 	H 	0.59610 0.86310 0.07550 0.24600
H 	H 	0.50020 0.77620 0.05300 0.23200
H 	H 	0.18110 0.36410 0.27140 0.00100
H 	H 	0.11610 0.44010 0.06520 0.02500
H 	H 	0.86840 0.61980 0.34520 0.24600
H 	H 	0.91950 0.47310 0.37130 0.23200
H 	H 	0.99990 0.55390 0.30620 0.24800
H 	H 	0.07270 0.08010 0.17800 -0.01300
H 	H 	0.22040 0.49380 0.36530 0.25600
H 	H 	0.13690 0.40390 0.42450 0.24700
H 	H 	0.22380 0.49980 0.44700 0.23300
H 	H 	0.36410 0.18110 0.77140 0.00100
H 	H 	0.44010 0.11610 0.56520 0.02500
H 	H 	0.61980 0.86840 0.84520 0.24500
H 	H 	0.47310 0.91950 0.87130 0.23100
H 	H 	0.55390 0.99990 0.80620 0.24800
H 	H 	0.08010 0.07270 0.67800 -0.01300
H 	H 	0.49380 0.22040 0.86530 0.25600
H 	H 	0.40390 0.13690 0.92450 0.24600
H 	H 	0.49980 0.22380 0.94700 0.23200
H 	H 	0.81890 0.63590 0.72860 0.00100
H 	H 	0.88390 0.55990 0.93480 0.02500
H 	H 	0.13160 0.38020 0.65480 0.24600
H 	H 	0.08050 0.52690 0.62870 0.23200
H 	H 	0.00010 0.44610 0.69380 0.24800
H 	H 	0.92730 0.91990 0.82200 -0.01300
H 	H 	0.77960 0.50620 0.63470 0.25600
H 	H 	0.86310 0.59610 0.57550 0.24700
H 	H 	0.77620 0.50020 0.55300 0.23300
C 	C 	0.88440 0.87100 0.19350 0.39700
C 	C 	0.66400 0.84240 0.26870 0.09200
C 	C 	0.43640 0.81420 0.33540 0.40500
C 	C 	0.74850 0.91010 0.38870 -0.16700
C 	C 	0.57700 0.84400 0.33190 -0.17600
C 	C 	0.79170 0.87450 0.26320 -0.18500
C 	C 	0.61820 0.88000 0.39240 0.07900
C 	C 	0.44120 0.05460 0.14820 -0.74000
C 	C 	0.83400 0.90720 0.32440 0.08800
C 	C 	0.79330 0.94890 0.45390 0.37400
C 	C 	0.51150 0.83070 0.08770 -0.76200
C 	C 	0.12900 0.11560 0.30650 0.39600
C 	C 	0.15760 0.33600 0.23130 0.09200
C 	C 	0.18580 0.56360 0.16460 0.40500
C 	C 	0.08990 0.25150 0.11130 -0.16600
C 	C 	0.15600 0.42300 0.16810 -0.17600
C 	C 	0.12550 0.20830 0.23680 -0.18500
C 	C 	0.12000 0.38180 0.10760 0.07800
C 	C 	0.94540 0.55880 0.35180 -0.74400
C 	C 	0.09280 0.16600 0.17560 0.08800
C 	C 	0.05110 0.20670 0.04610 0.37200
C 	C 	0.16930 0.48850 0.41230 -0.76300
C 	C 	0.11560 0.12900 0.80650 0.39700
C 	C 	0.33600 0.15760 0.73130 0.09200
C 	C 	0.56360 0.18580 0.66460 0.40500
C 	C 	0.25150 0.08990 0.61130 -0.16700
C 	C 	0.42300 0.15600 0.66810 -0.17600
C 	C 	0.20830 0.12550 0.73680 -0.18500
C 	C 	0.38180 0.12000 0.60760 0.07900
C 	C 	0.55880 0.94540 0.85180 -0.74000
C 	C 	0.16600 0.09280 0.67560 0.08800
C 	C 	0.20670 0.05110 0.54610 0.37400
C 	C 	0.48850 0.16930 0.91230 -0.76200
C 	C 	0.87100 0.88440 0.69350 0.39600
C 	C 	0.84240 0.66400 0.76870 0.09200
C 	C 	0.81420 0.43640 0.83540 0.40500
C 	C 	0.91010 0.74850 0.88870 -0.16600
C 	C 	0.84400 0.57700 0.83190 -0.17600
C 	C 	0.87450 0.79170 0.76320 -0.18500
C 	C 	0.88000 0.61820 0.89240 0.07800
C 	C 	0.05460 0.44120 0.64820 -0.74400
C 	C 	0.90720 0.83400 0.82440 0.08800
C 	C 	0.94890 0.79330 0.95390 0.37200
C 	C 	0.83070 0.51150 0.58770 -0.76300
S 	S 	0.38670 0.96456 0.08782 0.35000
S 	S 	0.03544 0.61330 0.41218 0.35300
S 	S 	0.61330 0.03544 0.91218 0.35000
S 	S 	0.96456 0.38670 0.58782 0.35300
O 	O 	0.00700 0.84940 0.19698 -0.58700
O 	O 	0.91510 0.95290 0.45426 -0.56800
O 	O 	0.26500 0.90460 0.12915 -0.51200
O 	O 	0.35880 0.82340 0.39210 -0.49000
O 	O 	0.70840 0.97780 0.50500 -0.42300
O 	O 	0.84000 0.88740 0.13441 -0.42100
O 	O 	0.40760 0.78260 0.27820 -0.48600
O 	O 	0.15060 0.99300 0.30302 -0.58600
O 	O 	0.04710 0.08490 0.04574 -0.56700
O 	O 	0.09540 0.73500 0.37085 -0.51200
O 	O 	0.17660 0.64120 0.10790 -0.49000
O 	O 	0.02220 0.29160 0.99500 -0.42100
O 	O 	0.11260 0.16000 0.36559 -0.42100
O 	O 	0.21740 0.59240 0.22180 -0.48600
O 	O 	0.99300 0.15060 0.80302 -0.58700
O 	O 	0.08490 0.04710 0.54574 -0.56800
O 	O 	0.73500 0.09540 0.87085 -0.51200
O 	O 	0.64120 0.17660 0.60790 -0.49000
O 	O 	0.29160 0.02220 0.49500 -0.42300
O 	O 	0.16000 0.11260 0.86559 -0.42100
O 	O 	0.59240 0.21740 0.72180 -0.48600
O 	O 	0.84940 0.00700 0.69698 -0.58600
O 	O 	0.95290 0.91510 0.95426 -0.56700
O 	O 	0.90460 0.26500 0.62915 -0.51200
O 	O 	0.82340 0.35880 0.89210 -0.49000
O 	O 	0.97780 0.70840 0.00500 -0.42100
O 	O 	0.88740 0.84000 0.63441 -0.42100
O 	O 	0.78260 0.40760 0.77820 -0.48600
