data_crystal

_cell_length_a 10.18410
_cell_length_b 12.03860
_cell_length_c 18.83000
_cell_angle_alpha 90.00000
_cell_angle_beta  99.15900
_cell_angle_gamma 90.00000

_symmetry_space_group_name_	'P 1'
_symmetry_space_group_name_H-M	'P 1'

loop_
_symmetry_equiv_pos_as_xyz
  x,y,z

loop_
_atom_site_label
_atom_site_type_symbol
_atom_site_fract_x
_atom_site_fract_y
_atom_site_fract_z
_atom_site_charge
Zn	Zn	0.87939 0.89921 0.67354 1.22000
Zn	Zn	0.62061 0.39921 0.82646 1.22100
Zn	Zn	0.12061 0.10079 0.32646 1.22000
Zn	Zn	0.37939 0.60079 0.17354 1.22100
H 	H 	0.29120 0.19660 0.73850 0.04600
H 	H 	0.06750 0.11550 0.55050 0.04800
H 	H 	0.37820 0.32180 0.55460 0.04800
H 	H 	0.63800 0.98100 0.91600 0.07700
H 	H 	0.52650 0.89010 0.90310 0.07900
H 	H 	0.59590 0.77520 0.66720 0.03000
H 	H 	0.48790 0.10190 0.96240 0.06200
H 	H 	0.37950 0.00840 0.95150 0.06400
H 	H 	0.39850 0.00890 0.81940 0.05800
H 	H 	0.51480 0.09580 0.83060 0.04500
H 	H 	0.43520 0.82550 0.74490 0.04300
H 	H 	0.84080 0.07910 0.76700 0.30900
H 	H 	0.75300 0.09970 0.82690 0.33800
H 	H 	0.71250 0.15250 0.75050 0.31100
H 	H 	0.20880 0.69660 0.76150 0.04500
H 	H 	0.43250 0.61550 0.94950 0.04800
H 	H 	0.12180 0.82180 0.94540 0.04800
H 	H 	0.86200 0.48100 0.58400 0.07700
H 	H 	0.97350 0.39010 0.59690 0.07900
H 	H 	0.90410 0.27520 0.83280 0.03100
H 	H 	0.01210 0.60190 0.53760 0.06300
H 	H 	0.12050 0.50840 0.54850 0.06500
H 	H 	0.10150 0.50890 0.68060 0.05800
H 	H 	0.98520 0.59580 0.66940 0.04400
H 	H 	0.06480 0.32550 0.75510 0.04100
H 	H 	0.65920 0.57910 0.73300 0.30900
H 	H 	0.74700 0.59970 0.67310 0.33800
H 	H 	0.78750 0.65250 0.74950 0.31200
H 	H 	0.70880 0.80340 0.26150 0.04500
H 	H 	0.93250 0.88450 0.44950 0.04700
H 	H 	0.62180 0.67820 0.44540 0.04800
H 	H 	0.36200 0.01900 0.08400 0.07700
H 	H 	0.47350 0.10990 0.09690 0.07900
H 	H 	0.40410 0.22480 0.33280 0.03000
H 	H 	0.51210 0.89810 0.03760 0.06200
H 	H 	0.62050 0.99160 0.04850 0.06400
H 	H 	0.60150 0.99110 0.18060 0.05800
H 	H 	0.48520 0.90420 0.16940 0.04500
H 	H 	0.56480 0.17450 0.25510 0.04300
H 	H 	0.15920 0.92090 0.23300 0.30900
H 	H 	0.24700 0.90030 0.17310 0.33800
H 	H 	0.28750 0.84750 0.24950 0.31100
H 	H 	0.79120 0.30340 0.23850 0.04500
H 	H 	0.56750 0.38450 0.05050 0.04800
H 	H 	0.87820 0.17820 0.05460 0.04800
H 	H 	0.13800 0.51900 0.41600 0.07700
H 	H 	0.02650 0.60990 0.40310 0.07900
H 	H 	0.09590 0.72480 0.16720 0.03100
H 	H 	0.98790 0.39810 0.46240 0.06300
H 	H 	0.87950 0.49160 0.45150 0.06500
H 	H 	0.89850 0.49110 0.31940 0.05800
H 	H 	0.01480 0.40420 0.33060 0.04400
H 	H 	0.93520 0.67450 0.24490 0.04100
H 	H 	0.34080 0.42090 0.26700 0.30900
H 	H 	0.25300 0.40030 0.32690 0.33800
H 	H 	0.21250 0.34750 0.25050 0.31200
C 	C 	0.07480 0.08010 0.69200 0.33500
C 	C 	0.47710 0.32360 0.69420 0.33100
C 	C 	0.27260 0.20330 0.68873 0.03500
C 	C 	0.13860 0.15430 0.57618 0.03900
C 	C 	0.22040 0.21800 0.53975 -0.10600
C 	C 	0.16270 0.14840 0.65113 -0.10300
C 	C 	0.35510 0.26790 0.65329 -0.09600
C 	C 	0.67260 0.98940 0.75261 0.34800
C 	C 	0.32610 0.27640 0.57881 0.03400
C 	C 	0.54270 0.96950 0.90413 -0.13000
C 	C 	0.70440 0.28090 0.95827 0.35500
C 	C 	0.60120 0.83690 0.69716 -0.00700
C 	C 	0.47440 0.02210 0.96264 -0.08500
C 	C 	0.49440 0.01710 0.83049 -0.02800
C 	C 	0.51200 0.86450 0.73982 0.00200
C 	C 	0.75160 0.08880 0.77630 -0.96400
C 	C 	0.42520 0.58010 0.80800 0.34100
C 	C 	0.02290 0.82360 0.80580 0.33600
C 	C 	0.22740 0.70330 0.81127 0.03600
C 	C 	0.36140 0.65430 0.92382 0.04000
C 	C 	0.27960 0.71800 0.96025 -0.10700
C 	C 	0.33730 0.64840 0.84887 -0.10500
C 	C 	0.14490 0.76790 0.84671 -0.09800
C 	C 	0.82740 0.48940 0.74739 0.35100
C 	C 	0.17390 0.77640 0.92119 0.03500
C 	C 	0.95730 0.46950 0.59587 -0.12800
C 	C 	0.79560 0.78090 0.54173 0.35400
C 	C 	0.89880 0.33690 0.80284 -0.00900
C 	C 	0.02560 0.52210 0.53736 -0.08800
C 	C 	0.00560 0.51710 0.66951 -0.03000
C 	C 	0.98800 0.36450 0.76018 0.00500
C 	C 	0.74840 0.58880 0.72370 -0.96900
C 	C 	0.92520 0.91990 0.30800 0.33500
C 	C 	0.52290 0.67640 0.30580 0.33100
C 	C 	0.72740 0.79670 0.31127 0.03500
C 	C 	0.86140 0.84570 0.42382 0.03900
C 	C 	0.77960 0.78200 0.46025 -0.10600
C 	C 	0.83730 0.85160 0.34887 -0.10300
C 	C 	0.64490 0.73210 0.34671 -0.09600
C 	C 	0.32740 0.01060 0.24739 0.34800
C 	C 	0.67390 0.72360 0.42119 0.03400
C 	C 	0.45730 0.03050 0.09587 -0.13000
C 	C 	0.29560 0.71910 0.04173 0.35500
C 	C 	0.39880 0.16310 0.30284 -0.00700
C 	C 	0.52560 0.97790 0.03736 -0.08500
C 	C 	0.50560 0.98290 0.16951 -0.02800
C 	C 	0.48800 0.13550 0.26018 0.00200
C 	C 	0.24840 0.91120 0.22370 -0.96400
C 	C 	0.57480 0.41990 0.19200 0.34100
C 	C 	0.97710 0.17640 0.19420 0.33600
C 	C 	0.77260 0.29670 0.18873 0.03600
C 	C 	0.63860 0.34570 0.07618 0.04000
C 	C 	0.72040 0.28200 0.03975 -0.10700
C 	C 	0.66270 0.35160 0.15113 -0.10500
C 	C 	0.85510 0.23210 0.15329 -0.09800
C 	C 	0.17260 0.51060 0.25261 0.35100
C 	C 	0.82610 0.22360 0.07881 0.03500
C 	C 	0.04270 0.53050 0.40413 -0.12800
C 	C 	0.20440 0.21910 0.45827 0.35400
C 	C 	0.10120 0.66310 0.19716 -0.00900
C 	C 	0.97440 0.47790 0.46264 -0.08800
C 	C 	0.99440 0.48290 0.33049 -0.03000
C 	C 	0.01200 0.63550 0.23982 0.00500
C 	C 	0.25160 0.41120 0.27630 -0.96900
N 	N 	0.70140 0.91477 0.70502 -0.31300
N 	N 	0.55630 0.96144 0.77440 -0.16500
N 	N 	0.79860 0.41477 0.79498 -0.31300
N 	N 	0.94370 0.46144 0.72560 -0.16600
N 	N 	0.29860 0.08523 0.29498 -0.31300
N 	N 	0.44370 0.03856 0.22560 -0.16500
N 	N 	0.20140 0.58523 0.20502 -0.31300
N 	N 	0.05630 0.53856 0.27440 -0.16600
O 	O 	0.97245 0.03771 0.65449 -0.44100
O 	O 	0.49404 0.30815 0.76309 -0.45400
O 	O 	0.62515 0.35353 0.92683 -0.44700
O 	O 	0.10710 0.06895 0.75795 -0.28800
O 	O 	0.76930 0.21570 0.92838 -0.32500
O 	O 	0.05125 0.12293 0.16150 -0.30400
O 	O 	0.52755 0.53771 0.84551 -0.44700
O 	O 	0.00596 0.80815 0.73691 -0.45400
O 	O 	0.87485 0.85353 0.57317 -0.44900
O 	O 	0.39290 0.56895 0.74205 -0.28900
O 	O 	0.73070 0.71570 0.57162 -0.32500
O 	O 	0.44875 0.62293 0.33850 -0.30000
O 	O 	0.02755 0.96229 0.34551 -0.44100
O 	O 	0.50596 0.69185 0.23691 -0.45400
O 	O 	0.37485 0.64647 0.07317 -0.44700
O 	O 	0.89290 0.93105 0.24205 -0.28800
O 	O 	0.23070 0.78430 0.07162 -0.32500
O 	O 	0.94875 0.87707 0.83850 -0.30400
O 	O 	0.47245 0.46229 0.15449 -0.44700
O 	O 	0.99404 0.19185 0.26309 -0.45400
O 	O 	0.12515 0.14647 0.42683 -0.44900
O 	O 	0.60710 0.43105 0.25795 -0.28900
O 	O 	0.26930 0.28430 0.42838 -0.32500
O 	O 	0.55125 0.37707 0.66150 -0.30000
