data_crystal

_cell_length_a 9.75050
_cell_length_b 11.21770
_cell_length_c 14.37360
_cell_angle_alpha 91.28910
_cell_angle_beta  90.00000
_cell_angle_gamma 90.00000

_symmetry_space_group_name_	'P 1'
_symmetry_space_group_name_H-M	'P 1'

loop_
_symmetry_equiv_pos_as_xyz
  x,y,z

loop_
_atom_site_label
_atom_site_type_symbol
_atom_site_fract_x
_atom_site_fract_y
_atom_site_fract_z
_atom_site_charge
Zn	Zn	0.91895 0.75672 0.13186 1.27300
Zn	Zn	0.10322 0.74020 0.31480 1.23800
Zn	Zn	0.41895 0.74328 0.36814 1.24700
Zn	Zn	0.60322 0.75980 0.18520 1.25100
Zn	Zn	0.08105 0.24328 0.86814 1.21600
Zn	Zn	0.89678 0.25980 0.68520 1.26400
Zn	Zn	0.58105 0.25672 0.63186 1.24300
Zn	Zn	0.39678 0.24020 0.81480 1.25000
Zn	Zn	0.00000 0.50000 -0.00000 1.19600
Zn	Zn	0.50000 0.00000 0.50000 1.23300
Zn	Zn	-0.00000 0.00000 -0.00000 1.17400
Zn	Zn	0.50000 0.50000 0.50000 1.25500
H 	H 	0.74790 0.86160 0.36860 -0.08300
H 	H 	0.02250 0.47390 0.26870 -0.08300
H 	H 	0.61310 0.56140 0.03540 -0.07100
H 	H 	0.17440 0.99060 0.24100 -0.14400
H 	H 	0.17210 0.69670 0.93440 -0.11600
H 	H 	0.70020 0.98580 0.99990 0.06400
H 	H 	0.24790 0.63840 0.13140 -0.11700
H 	H 	0.52250 0.02610 0.23130 -0.25000
H 	H 	0.11310 0.93860 0.46460 -0.10600
H 	H 	0.67440 0.50940 0.25900 -0.10400
H 	H 	0.67210 0.80330 0.56560 -0.07400
H 	H 	0.20020 0.51420 0.50010 -0.11300
H 	H 	0.25210 0.13840 0.63140 -0.12900
H 	H 	0.97750 0.52610 0.73130 -0.12500
H 	H 	0.38690 0.43860 0.96460 -0.11900
H 	H 	0.82560 0.00940 0.75900 -0.07500
H 	H 	0.82790 0.30330 0.06560 -0.06800
H 	H 	0.29980 0.01420 0.00010 -0.23800
H 	H 	0.75210 0.36160 0.86860 -0.09300
H 	H 	0.47750 0.97390 0.76870 0.04400
H 	H 	0.88690 0.06140 0.53540 -0.08300
H 	H 	0.32560 0.49060 0.74100 -0.11700
H 	H 	0.32790 0.19670 0.43440 -0.11800
H 	H 	0.79980 0.48580 0.49990 -0.07100
C 	C 	0.82100 0.83130 0.33130 0.48500
C 	C 	0.00550 0.51610 0.21330 0.34300
C 	C 	0.70790 0.57680 0.04470 0.33800
C 	C 	0.11960 0.96000 0.19130 0.63200
C 	C 	0.11260 0.74260 0.97330 0.63000
C 	C 	0.71690 0.92680 0.04490 0.29500
C 	C 	0.32100 0.66870 0.16870 0.49700
C 	C 	0.50550 0.98390 0.28670 0.80100
C 	C 	0.20790 0.92320 0.45530 0.48700
C 	C 	0.61960 0.54000 0.30870 0.49800
C 	C 	0.61260 0.75740 0.52670 0.49000
C 	C 	0.21690 0.57320 0.45510 0.50100
C 	C 	0.17900 0.16870 0.66870 0.50300
C 	C 	0.99450 0.48390 0.78670 0.68700
C 	C 	0.29210 0.42320 0.95530 0.63600
C 	C 	0.88040 0.04000 0.80870 0.36300
C 	C 	0.88740 0.25740 0.02670 0.35800
C 	C 	0.28310 0.07320 0.95510 0.67100
C 	C 	0.67900 0.33130 0.83130 0.49000
C 	C 	0.49450 0.01610 0.71330 0.23000
C 	C 	0.79210 0.07680 0.54470 0.49000
C 	C 	0.38040 0.46000 0.69130 0.50100
C 	C 	0.38740 0.24260 0.47330 0.51000
C 	C 	0.78310 0.42680 0.54490 0.48000
O 	O 	0.79500 0.81231 0.24491 -0.53800
O 	O 	0.93120 0.81430 0.37100 -0.37700
O 	O 	0.00050 0.62856 0.22096 -0.58900
O 	O 	0.99060 0.45579 0.14169 -0.31700
O 	O 	0.74060 0.65280 0.10900 -0.52600
O 	O 	0.78990 0.52199 0.99389 -0.29100
O 	O 	0.07950 0.85206 0.19686 -0.64100
O 	O 	0.09390 0.02839 0.12759 -0.58900
O 	O 	0.02870 0.68495 0.02455 -0.71000
O 	O 	0.12320 0.85146 0.96986 -0.43200
O 	O 	0.84130 0.89602 0.05672 -0.49700
O 	O 	0.61500 0.88758 0.08618 -0.38600
O 	O 	0.29500 0.68769 0.25509 -0.57100
O 	O 	0.43120 0.68570 0.12900 -0.46400
O 	O 	0.50050 0.87144 0.27904 -0.65000
O 	O 	0.49060 0.04421 0.35831 -0.57600
O 	O 	0.24060 0.84720 0.39100 -0.57500
O 	O 	0.28990 0.97801 0.50611 -0.40500
O 	O 	0.57950 0.64794 0.30314 -0.56900
O 	O 	0.59390 0.47161 0.37241 -0.44400
O 	O 	0.52870 0.81505 0.47545 -0.56400
O 	O 	0.62320 0.64854 0.53014 -0.43700
O 	O 	0.34130 0.60398 0.44328 -0.58700
O 	O 	0.11500 0.61242 0.41382 -0.47900
O 	O 	0.20500 0.18769 0.75509 -0.60200
O 	O 	0.06880 0.18570 0.62900 -0.52700
O 	O 	0.99950 0.37144 0.77904 -0.58000
O 	O 	0.00940 0.54421 0.85831 -0.55200
O 	O 	0.25940 0.34720 0.89100 -0.61700
O 	O 	0.21010 0.47801 0.00611 -0.56900
O 	O 	0.92050 0.14794 0.80314 -0.50000
O 	O 	0.90610 0.97161 0.87241 -0.28000
O 	O 	0.97130 0.31505 0.97545 -0.43000
O 	O 	0.87680 0.14854 0.03014 -0.43200
O 	O 	0.15870 0.10398 0.94328 -0.64000
O 	O 	0.38500 0.11242 0.91382 -0.49700
O 	O 	0.70500 0.31231 0.74491 -0.56800
O 	O 	0.56880 0.31430 0.87100 -0.43700
O 	O 	0.49950 0.12856 0.72096 -0.52100
O 	O 	0.50940 0.95579 0.64169 -0.30400
O 	O 	0.75940 0.15280 0.60900 -0.57000
O 	O 	0.71010 0.02199 0.49389 -0.46500
O 	O 	0.42050 0.35206 0.69686 -0.57900
O 	O 	0.40610 0.52839 0.62759 -0.44900
O 	O 	0.47130 0.18495 0.52455 -0.59200
O 	O 	0.37680 0.35146 0.46986 -0.46100
O 	O 	0.65870 0.39602 0.55672 -0.57400
O 	O 	0.88500 0.38758 0.58618 -0.40700
