data_crystal

_cell_length_a 11.80500
_cell_length_b 17.14200
_cell_length_c 21.54400
_cell_angle_alpha 90.00000
_cell_angle_beta  90.00000
_cell_angle_gamma 106.44100

_symmetry_space_group_name_	'P 1'
_symmetry_space_group_name_H-M	'P 1'

loop_
_symmetry_equiv_pos_as_xyz
  x,y,z

loop_
_atom_site_label
_atom_site_type_symbol
_atom_site_fract_x
_atom_site_fract_y
_atom_site_fract_z
_atom_site_charge
Zn	Zn	0.82324 0.72725 0.57206 1.24100
Zn	Zn	0.64024 0.82852 0.62040 1.21700
Zn	Zn	0.06487 0.36568 0.53252 1.21700
Zn	Zn	0.67676 0.27275 0.07206 1.24100
Zn	Zn	0.85976 0.17148 0.12040 1.21600
Zn	Zn	0.43513 0.63432 0.03252 1.21700
Zn	Zn	0.17676 0.27275 0.42794 1.24100
Zn	Zn	0.35976 0.17148 0.37960 1.21700
Zn	Zn	0.93513 0.63432 0.46748 1.21700
Zn	Zn	0.32324 0.72725 0.92794 1.24100
Zn	Zn	0.14024 0.82852 0.87960 1.21600
Zn	Zn	0.56487 0.36568 0.96748 1.21700
H 	H 	0.40910 0.80160 0.67980 -0.01000
H 	H 	0.28380 0.87210 0.71770 0.10500
H 	H 	0.33230 0.00570 0.71110 -0.00500
H 	H 	0.50370 0.07550 0.65530 0.08800
H 	H 	0.62660 0.99570 0.61740 -0.00900
H 	H 	0.09900 0.36760 0.67050 -0.03800
H 	H 	0.03660 0.41550 0.75690 0.10600
H 	H 	0.89740 0.48630 0.74910 -0.02000
H 	H 	0.83030 0.51050 0.65220 0.11000
H 	H 	0.89360 0.45430 0.56780 -0.01700
H 	H 	0.10830 0.92770 0.58410 0.03200
H 	H 	0.26570 0.03790 0.56330 0.06900
H 	H 	0.23800 0.16490 0.55310 0.02800
H 	H 	0.89000 0.06800 0.58260 0.03600
H 	H 	0.57410 0.51550 0.62120 0.01800
H 	H 	0.40570 0.40870 0.63730 0.07300
H 	H 	0.34480 0.30830 0.56300 0.01600
H 	H 	0.62940 0.41360 0.46090 0.02600
H 	H 	0.19350 0.57210 0.58480 0.03500
H 	H 	0.32850 0.56090 0.66080 0.07700
H 	H 	0.33110 0.62460 0.75500 0.02400
H 	H 	0.08310 0.72490 0.69560 0.03300
H 	H 	0.09090 0.19840 0.17980 -0.00900
H 	H 	0.21620 0.12790 0.21770 0.10500
H 	H 	0.16770 0.99430 0.21110 -0.00200
H 	H 	0.99630 0.92450 0.15530 0.08400
H 	H 	0.87340 0.00430 0.11740 -0.00600
H 	H 	0.40100 0.63240 0.17050 -0.03600
H 	H 	0.46340 0.58450 0.25690 0.10500
H 	H 	0.60260 0.51370 0.24910 -0.01900
H 	H 	0.66970 0.48950 0.15220 0.10800
H 	H 	0.60640 0.54570 0.06780 -0.01600
H 	H 	0.39170 0.07230 0.08410 0.03200
H 	H 	0.23430 0.96210 0.06330 0.07000
H 	H 	0.26200 0.83510 0.05310 0.02800
H 	H 	0.61000 0.93200 0.08260 0.03500
H 	H 	0.92590 0.48450 0.12120 0.02000
H 	H 	0.09430 0.59130 0.13730 0.07000
H 	H 	0.15520 0.69170 0.06300 0.01900
H 	H 	0.87060 0.58640 0.96090 0.02800
H 	H 	0.30650 0.42790 0.08480 0.03500
H 	H 	0.17150 0.43910 0.16080 0.07700
H 	H 	0.16890 0.37540 0.25500 0.02400
H 	H 	0.41690 0.27510 0.19560 0.03300
H 	H 	0.59090 0.19840 0.32020 -0.00900
H 	H 	0.71620 0.12790 0.28230 0.10600
H 	H 	0.66770 0.99430 0.28890 -0.00400
H 	H 	0.49630 0.92450 0.34470 0.08900
H 	H 	0.37340 0.00430 0.38260 -0.00800
H 	H 	0.90100 0.63240 0.32950 -0.03700
H 	H 	0.96340 0.58450 0.24310 0.10600
H 	H 	0.10260 0.51370 0.25090 -0.02000
H 	H 	0.16970 0.48950 0.34780 0.11000
H 	H 	0.10640 0.54570 0.43220 -0.01700
H 	H 	0.89170 0.07230 0.41590 0.03200
H 	H 	0.73430 0.96210 0.43670 0.06900
H 	H 	0.76200 0.83510 0.44690 0.02800
H 	H 	0.11000 0.93200 0.41740 0.03600
H 	H 	0.42590 0.48450 0.37880 0.01800
H 	H 	0.59430 0.59130 0.36270 0.07300
H 	H 	0.65520 0.69170 0.43700 0.01600
H 	H 	0.37060 0.58640 0.53910 0.02600
H 	H 	0.80650 0.42790 0.41520 0.03500
H 	H 	0.67150 0.43910 0.33920 0.07700
H 	H 	0.66890 0.37540 0.24500 0.02400
H 	H 	0.91690 0.27510 0.30440 0.03300
H 	H 	0.90910 0.80160 0.82020 -0.00900
H 	H 	0.78380 0.87210 0.78230 0.10500
H 	H 	0.83230 0.00570 0.78890 -0.00200
H 	H 	0.00370 0.07550 0.84470 0.08400
H 	H 	0.12660 0.99570 0.88260 -0.00600
H 	H 	0.59900 0.36760 0.82950 -0.03600
H 	H 	0.53660 0.41550 0.74310 0.10500
H 	H 	0.39740 0.48630 0.75090 -0.01900
H 	H 	0.33030 0.51050 0.84780 0.10800
H 	H 	0.39360 0.45430 0.93220 -0.01600
H 	H 	0.60830 0.92770 0.91590 0.03200
H 	H 	0.76570 0.03790 0.93670 0.07000
H 	H 	0.73800 0.16490 0.94690 0.02800
H 	H 	0.39000 0.06800 0.91740 0.03500
H 	H 	0.07410 0.51550 0.87880 0.02000
H 	H 	0.90570 0.40870 0.86270 0.07000
H 	H 	0.84480 0.30830 0.93700 0.01900
H 	H 	0.12940 0.41360 0.03910 0.02800
H 	H 	0.69350 0.57210 0.91520 0.03500
H 	H 	0.82850 0.56090 0.83920 0.07700
H 	H 	0.83110 0.62460 0.74500 0.02400
H 	H 	0.58310 0.72490 0.80440 0.03300
C 	C 	0.43120 0.85790 0.67570 0.11900
C 	C 	0.35430 0.90030 0.69870 -0.19000
C 	C 	0.38090 0.97740 0.69370 0.10900
C 	C 	0.48400 0.01960 0.66180 -0.15800
C 	C 	0.55810 0.97040 0.63930 0.09100
C 	C 	0.04270 0.39580 0.66670 0.14300
C 	C 	0.00670 0.42430 0.71840 -0.21600
C 	C 	0.92490 0.46660 0.71360 0.13800
C 	C 	0.88360 0.48010 0.65670 -0.20200
C 	C 	0.92360 0.44720 0.60670 0.12300
C 	C 	0.88220 0.91180 0.59240 0.40200
C 	C 	0.98380 0.98650 0.58410 -0.13100
C 	C 	0.09630 0.97870 0.57920 0.05500
C 	C 	0.19040 0.04430 0.56710 -0.11300
C 	C 	0.17380 0.11990 0.56060 0.03600
C 	C 	0.05960 0.12930 0.56520 -0.11400
C 	C 	0.96550 0.06220 0.57800 0.06400
C 	C 	0.03970 0.21130 0.55580 0.33000
C 	C 	0.72280 0.54730 0.52610 0.41900
C 	C 	0.61940 0.47700 0.53880 -0.15500
C 	C 	0.55150 0.47430 0.59180 0.07100
C 	C 	0.44980 0.41050 0.60130 -0.13400
C 	C 	0.41430 0.34990 0.55740 0.06300
C 	C 	0.48140 0.35120 0.50570 -0.14300
C 	C 	0.58400 0.41380 0.49610 0.08600
C 	C 	0.44470 0.28690 0.45660 0.36300
C 	C 	0.04350 0.66220 0.58290 0.40300
C 	C 	0.12700 0.65170 0.63310 -0.13400
C 	C 	0.19860 0.60030 0.62210 0.06000
C 	C 	0.27750 0.59250 0.66790 -0.12000
C 	C 	0.27990 0.63170 0.72410 0.06700
C 	C 	0.20720 0.68160 0.73560 -0.15200
C 	C 	0.13150 0.69120 0.68900 0.08100
C 	C 	0.21350 0.72400 0.79620 0.42500
C 	C 	0.06880 0.14210 0.17570 0.11900
C 	C 	0.14570 0.09970 0.19870 -0.18600
C 	C 	0.11910 0.02260 0.19370 0.10200
C 	C 	0.01600 0.98040 0.16180 -0.14800
C 	C 	0.94190 0.02960 0.13930 0.08400
C 	C 	0.45730 0.60420 0.16670 0.14000
C 	C 	0.49330 0.57570 0.21840 -0.21100
C 	C 	0.57510 0.53340 0.21360 0.13200
C 	C 	0.61640 0.51990 0.15670 -0.19800
C 	C 	0.57640 0.55280 0.10670 0.12100
C 	C 	0.61780 0.08820 0.09240 0.40200
C 	C 	0.51620 0.01350 0.08410 -0.13400
C 	C 	0.40370 0.02130 0.07920 0.05700
C 	C 	0.30960 0.95570 0.06710 -0.11400
C 	C 	0.32620 0.88010 0.06060 0.03800
C 	C 	0.44040 0.87070 0.06520 -0.11500
C 	C 	0.53450 0.93780 0.07800 0.06600
C 	C 	0.46030 0.78870 0.05580 0.33100
C 	C 	0.77720 0.45270 0.02610 0.41600
C 	C 	0.88060 0.52300 0.03880 -0.15300
C 	C 	0.94850 0.52570 0.09180 0.06300
C 	C 	0.05020 0.58950 0.10130 -0.12500
C 	C 	0.08570 0.65010 0.05740 0.05700
C 	C 	0.01860 0.64880 0.00570 -0.13500
C 	C 	0.91600 0.58620 0.99610 0.08400
C 	C 	0.05530 0.71310 0.95660 0.35500
C 	C 	0.45650 0.33780 0.08290 0.40400
C 	C 	0.37300 0.34830 0.13310 -0.13400
C 	C 	0.30140 0.39970 0.12210 0.06000
C 	C 	0.22250 0.40750 0.16790 -0.12000
C 	C 	0.22010 0.36830 0.22410 0.06800
C 	C 	0.29280 0.31840 0.23560 -0.15200
C 	C 	0.36850 0.30880 0.18900 0.08200
C 	C 	0.28650 0.27600 0.29620 0.42500
C 	C 	0.56880 0.14210 0.32430 0.11900
C 	C 	0.64570 0.09970 0.30130 -0.19000
C 	C 	0.61910 0.02260 0.30630 0.10900
C 	C 	0.51600 0.98040 0.33820 -0.15800
C 	C 	0.44190 0.02960 0.36070 0.09100
C 	C 	0.95730 0.60420 0.33330 0.14300
C 	C 	0.99330 0.57570 0.28160 -0.21600
C 	C 	0.07510 0.53340 0.28640 0.13800
C 	C 	0.11640 0.51990 0.34330 -0.20200
C 	C 	0.07640 0.55280 0.39330 0.12300
C 	C 	0.11780 0.08820 0.40760 0.40200
C 	C 	0.01620 0.01350 0.41590 -0.13100
C 	C 	0.90370 0.02130 0.42080 0.05500
C 	C 	0.80960 0.95570 0.43290 -0.11300
C 	C 	0.82620 0.88010 0.43940 0.03600
C 	C 	0.94040 0.87070 0.43480 -0.11400
C 	C 	0.03450 0.93780 0.42200 0.06400
C 	C 	0.96030 0.78870 0.44420 0.33000
C 	C 	0.27720 0.45270 0.47390 0.41900
C 	C 	0.38060 0.52300 0.46120 -0.15500
C 	C 	0.44850 0.52570 0.40820 0.07100
C 	C 	0.55020 0.58950 0.39870 -0.13400
C 	C 	0.58570 0.65010 0.44260 0.06300
C 	C 	0.51860 0.64880 0.49430 -0.14300
C 	C 	0.41600 0.58620 0.50390 0.08600
C 	C 	0.55530 0.71310 0.54340 0.36300
C 	C 	0.95650 0.33780 0.41710 0.40300
C 	C 	0.87300 0.34830 0.36690 -0.13400
C 	C 	0.80140 0.39970 0.37790 0.06000
C 	C 	0.72250 0.40750 0.33210 -0.12000
C 	C 	0.72010 0.36830 0.27590 0.06700
C 	C 	0.79280 0.31840 0.26440 -0.15200
C 	C 	0.86850 0.30880 0.31100 0.08100
C 	C 	0.78650 0.27600 0.20380 0.42500
C 	C 	0.93120 0.85790 0.82430 0.11900
C 	C 	0.85430 0.90030 0.80130 -0.18600
C 	C 	0.88090 0.97740 0.80630 0.10200
C 	C 	0.98400 0.01960 0.83820 -0.14800
C 	C 	0.05810 0.97040 0.86070 0.08400
C 	C 	0.54270 0.39580 0.83330 0.14000
C 	C 	0.50670 0.42430 0.78160 -0.21100
C 	C 	0.42490 0.46660 0.78640 0.13200
C 	C 	0.38360 0.48010 0.84330 -0.19800
C 	C 	0.42360 0.44720 0.89330 0.12100
C 	C 	0.38220 0.91180 0.90760 0.40200
C 	C 	0.48380 0.98650 0.91590 -0.13400
C 	C 	0.59630 0.97870 0.92080 0.05700
C 	C 	0.69040 0.04430 0.93290 -0.11400
C 	C 	0.67380 0.11990 0.93940 0.03800
C 	C 	0.55960 0.12930 0.93480 -0.11500
C 	C 	0.46550 0.06220 0.92200 0.06600
C 	C 	0.53970 0.21130 0.94420 0.33100
C 	C 	0.22280 0.54730 0.97390 0.41600
C 	C 	0.11940 0.47700 0.96120 -0.15300
C 	C 	0.05150 0.47430 0.90820 0.06300
C 	C 	0.94980 0.41050 0.89870 -0.12500
C 	C 	0.91430 0.34990 0.94260 0.05700
C 	C 	0.98140 0.35120 0.99430 -0.13500
C 	C 	0.08400 0.41380 0.00390 0.08400
C 	C 	0.94470 0.28690 0.04340 0.35500
C 	C 	0.54350 0.66220 0.91710 0.40400
C 	C 	0.62700 0.65170 0.86690 -0.13400
C 	C 	0.69860 0.60030 0.87790 0.06000
C 	C 	0.77750 0.59250 0.83210 -0.12000
C 	C 	0.77990 0.63170 0.77590 0.06800
C 	C 	0.70720 0.68160 0.76440 -0.15200
C 	C 	0.63150 0.69120 0.81100 0.08200
C 	C 	0.71350 0.72400 0.70380 0.42500
N 	N 	0.53170 0.89300 0.64890 -0.27600
N 	N 	0.00370 0.40510 0.61000 -0.28200
N 	N 	0.96830 0.10700 0.14890 -0.27600
N 	N 	0.49630 0.59490 0.11000 -0.28100
N 	N 	0.46830 0.10700 0.35110 -0.27600
N 	N 	0.99630 0.59490 0.39000 -0.28200
N 	N 	0.03170 0.89300 0.85110 -0.27600
N 	N 	0.50370 0.40510 0.89000 -0.28100
O 	O 	0.78290 0.92100 0.60740 -0.47700
O 	O 	0.90350 0.84490 0.58290 -0.46500
O 	O 	0.94630 0.22360 0.57130 -0.33600
O 	O 	0.12510 0.26840 0.53030 -0.53800
O 	O 	0.73870 0.60670 0.56120 -0.47600
O 	O 	0.78900 0.54360 0.48060 -0.47600
O 	O 	0.33750 0.24370 0.45440 -0.54900
O 	O 	0.51770 0.27330 0.42040 -0.37900
O 	O 	0.04210 0.62240 0.53290 -0.47900
O 	O 	0.98350 0.70910 0.59330 -0.45800
O 	O 	0.15190 0.77260 0.80180 -0.49000
O 	O 	0.27580 0.70640 0.83680 -0.46300
O 	O 	0.71710 0.07900 0.10740 -0.47800
O 	O 	0.59650 0.15510 0.08290 -0.46600
O 	O 	0.55370 0.77640 0.07130 -0.33600
O 	O 	0.37490 0.73160 0.03030 -0.53700
O 	O 	0.76130 0.39330 0.06120 -0.47600
O 	O 	0.71100 0.45640 0.98060 -0.47400
O 	O 	0.16250 0.75630 0.95440 -0.54800
O 	O 	0.98230 0.72670 0.92040 -0.37500
O 	O 	0.45790 0.37760 0.03290 -0.47900
O 	O 	0.51650 0.29090 0.09330 -0.45900
O 	O 	0.34810 0.22740 0.30180 -0.48900
O 	O 	0.22420 0.29360 0.33680 -0.46300
O 	O 	0.21710 0.07900 0.39260 -0.47700
O 	O 	0.09650 0.15510 0.41710 -0.46500
O 	O 	0.05370 0.77640 0.42870 -0.33600
O 	O 	0.87490 0.73160 0.46970 -0.53800
O 	O 	0.26130 0.39330 0.43880 -0.47600
O 	O 	0.21100 0.45640 0.51940 -0.47600
O 	O 	0.66250 0.75630 0.54560 -0.54900
O 	O 	0.48230 0.72670 0.57960 -0.37900
O 	O 	0.95790 0.37760 0.46710 -0.47900
O 	O 	0.01650 0.29090 0.40670 -0.45800
O 	O 	0.84810 0.22740 0.19820 -0.49000
O 	O 	0.72420 0.29360 0.16320 -0.46300
O 	O 	0.28290 0.92100 0.89260 -0.47800
O 	O 	0.40350 0.84490 0.91710 -0.46600
O 	O 	0.44630 0.22360 0.92870 -0.33600
O 	O 	0.62510 0.26840 0.96970 -0.53700
O 	O 	0.23870 0.60670 0.93880 -0.47600
O 	O 	0.28900 0.54360 0.01940 -0.47400
O 	O 	0.83750 0.24370 0.04560 -0.54800
O 	O 	0.01770 0.27330 0.07960 -0.37500
O 	O 	0.54210 0.62240 0.96710 -0.47900
O 	O 	0.48350 0.70910 0.90670 -0.45900
O 	O 	0.65190 0.77260 0.69820 -0.48900
O 	O 	0.77580 0.70640 0.66320 -0.46300
