data_crystal

_cell_length_a 9.67790
_cell_length_b 14.63410
_cell_length_c 14.63410
_cell_angle_alpha 83.72290
_cell_angle_beta  70.69110
_cell_angle_gamma 70.69100

_symmetry_space_group_name_	'P 1'
_symmetry_space_group_name_H-M	'P 1'

loop_
_symmetry_equiv_pos_as_xyz
  x,y,z

loop_
_atom_site_label
_atom_site_type_symbol
_atom_site_fract_x
_atom_site_fract_y
_atom_site_fract_z
_atom_site_charge
Zn	Zn	0.84755 0.00000 -0.00000 1.19700
Zn	Zn	0.15245 0.00000 -0.00000 1.19500
H 	H 	0.57420 0.22120 0.22120 -0.00800
H 	H 	0.45620 0.33820 0.33820 0.11200
H 	H 	0.01660 0.77880 0.77880 0.00200
H 	H 	0.13260 0.66180 0.66180 0.09700
H 	H 	0.79540 0.77880 0.22120 -0.00300
H 	H 	0.79440 0.66180 0.33820 0.10300
H 	H 	0.79540 0.22120 0.77880 -0.00300
H 	H 	0.79440 0.33820 0.66180 0.10300
H 	H 	0.42580 0.77880 0.77880 0.01200
H 	H 	0.54380 0.66180 0.66180 0.10300
H 	H 	0.98340 0.22120 0.22120 -0.00100
H 	H 	0.86740 0.33820 0.33820 0.11700
H 	H 	0.20460 0.77880 0.22120 0.00000
H 	H 	0.20560 0.66180 0.33820 0.10500
H 	H 	0.20460 0.22120 0.77880 0.00000
H 	H 	0.20560 0.33820 0.66180 0.10500
H 	H 	0.56180 0.66560 0.21080 0.03700
H 	H 	0.61870 0.50910 0.25350 0.06100
H 	H 	0.43820 0.33440 0.78920 0.04300
H 	H 	0.38130 0.49090 0.74650 0.06200
H 	H 	0.77260 0.78920 0.66560 0.04600
H 	H 	0.87220 0.74650 0.50910 0.07300
H 	H 	0.22740 0.21080 0.33440 0.03400
H 	H 	0.12780 0.25350 0.49090 0.05600
H 	H 	0.43820 0.78920 0.33440 0.04300
H 	H 	0.38130 0.74650 0.49090 0.06200
H 	H 	0.56180 0.21080 0.66560 0.03700
H 	H 	0.61870 0.25350 0.50910 0.06100
H 	H 	0.22740 0.33440 0.21080 0.03400
H 	H 	0.12780 0.49090 0.25350 0.05600
H 	H 	0.77260 0.66560 0.78920 0.04600
H 	H 	0.87220 0.50910 0.74650 0.07300
H 	H 	0.68880 0.85440 -0.00000 0.10800
H 	H 	0.54320 0.14560 -0.00000 -0.09400
H 	H 	0.68880 -0.00000 0.85440 0.10800
H 	H 	0.54320 0.00000 0.14560 -0.09400
H 	H 	0.31120 0.00000 0.14560 -0.09600
H 	H 	0.45680 -0.00000 0.85440 0.10800
H 	H 	0.31120 0.14560 -0.00000 -0.09600
H 	H 	0.45680 0.85440 -0.00000 0.10800
H 	H 	0.60700 0.89200 0.10800 0.03200
H 	H 	0.60700 0.10800 0.89200 0.03200
H 	H 	0.71500 0.89200 0.89200 -0.08500
H 	H 	0.49900 0.10800 0.10800 0.15800
H 	H 	0.39300 0.89200 0.10800 0.03200
H 	H 	0.39300 0.10800 0.89200 0.03200
H 	H 	0.28500 0.10800 0.10800 0.15700
H 	H 	0.50100 0.89200 0.89200 -0.08800
C 	C 	0.60620 0.90800 0.03980 -0.46200
C 	C 	0.55400 0.09200 0.96020 0.46000
C 	C 	0.64600 0.96020 0.90800 0.17800
C 	C 	0.51420 0.03980 0.09200 -0.19500
C 	C 	0.39380 0.96020 0.09200 0.46300
C 	C 	0.44600 0.03980 0.90800 -0.46600
C 	C 	0.35400 0.09200 0.03980 -0.19400
C 	C 	0.48580 0.90800 0.96020 0.18000
C 	C 	0.39380 0.09200 0.96020 0.46300
C 	C 	0.44600 0.90800 0.03980 -0.46600
C 	C 	0.35400 0.03980 0.09200 -0.19400
C 	C 	0.48580 0.96020 0.90800 0.18000
C 	C 	0.60620 0.03980 0.90800 -0.46200
C 	C 	0.55400 0.96020 0.09200 0.46000
C 	C 	0.64600 0.90800 0.96020 0.17800
C 	C 	0.51420 0.09200 0.03980 -0.19500
C 	C 	0.63410 0.24480 0.24480 0.13600
C 	C 	0.56330 0.31490 0.31490 -0.21600
C 	C 	0.12370 0.75520 0.75520 0.10400
C 	C 	0.19310 0.68510 0.68510 -0.18600
C 	C 	0.87890 0.75520 0.24480 0.14200
C 	C 	0.87820 0.68510 0.31490 -0.17800
C 	C 	0.87890 0.24480 0.75520 0.14200
C 	C 	0.87820 0.31490 0.68510 -0.17800
C 	C 	0.36590 0.75520 0.75520 0.10600
C 	C 	0.43670 0.68510 0.68510 -0.18500
C 	C 	0.87630 0.24480 0.24480 0.13800
C 	C 	0.80690 0.31490 0.31490 -0.21500
C 	C 	0.12110 0.75520 0.24480 0.12100
C 	C 	0.12180 0.68510 0.31490 -0.19900
C 	C 	0.12110 0.24480 0.75520 0.12100
C 	C 	0.12180 0.31490 0.68510 -0.19900
C 	C 	0.57170 0.42830 0.42830 -0.07500
C 	C 	0.79140 0.20860 0.20860 -0.20400
C 	C 	0.64890 0.35110 0.35110 0.14700
C 	C 	0.86860 0.13140 0.13140 0.45400
C 	C 	0.42830 0.57170 0.57170 -0.06500
C 	C 	0.20860 0.79140 0.79140 -0.16100
C 	C 	0.35110 0.64890 0.64890 0.12500
C 	C 	0.13140 0.86860 0.86860 0.38800
C 	C 	-0.00000 0.57170 0.42830 -0.09000
C 	C 	0.00000 0.79140 0.20860 -0.20300
C 	C 	-0.00000 0.64890 0.35110 0.11400
C 	C 	-0.00000 0.86860 0.13140 0.40000
C 	C 	-0.00000 0.42830 0.57170 -0.09000
C 	C 	-0.00000 0.20860 0.79140 -0.20300
C 	C 	-0.00000 0.35110 0.64890 0.11400
C 	C 	-0.00000 0.13140 0.86860 0.40000
C 	C 	0.53780 0.64840 0.27600 -0.02900
C 	C 	0.57100 0.55630 0.30170 -0.07900
C 	C 	0.53660 0.52670 0.40010 0.03000
C 	C 	0.46220 0.35160 0.72400 -0.03500
C 	C 	0.42900 0.44370 0.69830 -0.07300
C 	C 	0.46340 0.47330 0.59990 0.02300
C 	C 	0.81380 0.72400 0.64840 -0.02500
C 	C 	0.87270 0.69830 0.55630 -0.08200
C 	C 	0.93670 0.59990 0.52670 0.04800
C 	C 	0.18620 0.27600 0.35160 -0.03600
C 	C 	0.12730 0.30170 0.44370 -0.08000
C 	C 	0.06330 0.40010 0.47330 0.02500
C 	C 	0.46220 0.72400 0.35160 -0.03500
C 	C 	0.42900 0.69830 0.44370 -0.07300
C 	C 	0.46340 0.59990 0.47330 0.02300
C 	C 	0.53780 0.27600 0.64840 -0.02900
C 	C 	0.57100 0.30170 0.55630 -0.07900
C 	C 	0.53660 0.40010 0.52670 0.03000
C 	C 	0.18620 0.35160 0.27600 -0.03600
C 	C 	0.12730 0.44370 0.30170 -0.08000
C 	C 	0.06330 0.47330 0.40010 0.02500
C 	C 	0.81380 0.64840 0.72400 -0.02500
C 	C 	0.87270 0.55630 0.69830 -0.08200
C 	C 	0.93670 0.52670 0.59990 0.04800
N 	N 	0.63420 0.00000 -0.00000 -0.24900
N 	N 	0.36580 0.00000 -0.00000 -0.24800
O 	O 	0.78290 0.10220 0.10220 -0.49500
O 	O 	0.98730 0.89780 0.89780 -0.42000
O 	O 	0.88510 0.89780 0.10220 -0.44600
O 	O 	0.88510 0.10220 0.89780 -0.44600
O 	O 	0.21710 0.89780 0.89780 -0.44300
O 	O 	0.01270 0.10220 0.10220 -0.51200
O 	O 	0.11490 0.89780 0.10220 -0.46500
O 	O 	0.11490 0.10220 0.89780 -0.46500
