data_crystal

_cell_length_a 11.10990
_cell_length_b 13.89090
_cell_length_c 22.48500
_cell_angle_alpha 90.00000
_cell_angle_beta  90.00000
_cell_angle_gamma 90.00000

_symmetry_space_group_name_	'P 1'
_symmetry_space_group_name_H-M	'P 1'

loop_
_symmetry_equiv_pos_as_xyz
  x,y,z

loop_
_atom_site_label
_atom_site_type_symbol
_atom_site_fract_x
_atom_site_fract_y
_atom_site_fract_z
_atom_site_charge
Zn	Zn	0.63211 0.14083 0.65299 1.23400
Zn	Zn	0.86586 0.01874 0.56139 1.16100
Zn	Zn	0.86789 0.85917 0.15299 1.23400
Zn	Zn	0.63414 0.98126 0.06139 1.16100
Zn	Zn	0.36789 0.64083 0.84701 1.23400
Zn	Zn	0.13414 0.51874 0.93861 1.16100
Zn	Zn	0.13211 0.35917 0.34701 1.23400
Zn	Zn	0.36586 0.48126 0.43861 1.16100
H 	H 	0.13790 0.51920 0.56970 0.06500
H 	H 	0.91050 0.37600 0.68040 0.08200
H 	H 	0.96980 0.27790 0.51270 0.03900
H 	H 	0.90740 0.53300 0.71770 0.03900
H 	H 	0.01020 0.47170 0.75090 0.03700
H 	H 	0.12360 0.61650 0.76360 0.04100
H 	H 	0.99840 0.61960 0.79870 0.01600
H 	H 	0.92800 0.85400 0.68130 0.05900
H 	H 	0.58330 0.85230 0.74040 0.06500
H 	H 	0.80780 0.63100 0.78140 0.08200
H 	H 	0.36210 0.48080 0.06970 0.06500
H 	H 	0.58950 0.62400 0.18040 0.08100
H 	H 	0.53020 0.72210 0.01270 0.03900
H 	H 	0.59260 0.46700 0.21770 0.03900
H 	H 	0.48980 0.52830 0.25090 0.03800
H 	H 	0.37640 0.38350 0.26360 0.04100
H 	H 	0.50160 0.38040 0.29870 0.01600
H 	H 	0.57200 0.14600 0.18130 0.05900
H 	H 	0.91670 0.14770 0.24040 0.06500
H 	H 	0.69220 0.36900 0.28140 0.08200
H 	H 	0.86210 0.01920 0.93030 0.06400
H 	H 	0.08950 0.87600 0.81960 0.08200
H 	H 	0.03020 0.77790 0.98730 0.03900
H 	H 	0.09260 0.03300 0.78230 0.03900
H 	H 	0.98980 0.97170 0.74910 0.03800
H 	H 	0.87640 0.11650 0.73640 0.04100
H 	H 	0.00160 0.11960 0.70130 0.01700
H 	H 	0.07200 0.35400 0.81870 0.05900
H 	H 	0.41670 0.35230 0.75960 0.06500
H 	H 	0.19220 0.13100 0.71860 0.08200
H 	H 	0.63790 0.98080 0.43030 0.06400
H 	H 	0.41050 0.12400 0.31960 0.08200
H 	H 	0.46980 0.22210 0.48730 0.03800
H 	H 	0.40740 0.96700 0.28230 0.04000
H 	H 	0.51020 0.02830 0.24910 0.03900
H 	H 	0.62360 0.88350 0.23640 0.04100
H 	H 	0.49840 0.88040 0.20130 0.01500
H 	H 	0.42800 0.64600 0.31870 0.05900
H 	H 	0.08330 0.64770 0.25960 0.06500
H 	H 	0.30780 0.86900 0.21860 0.08200
C 	C 	0.11350 0.41723 0.47091 0.37300
C 	C 	0.05900 0.40250 0.53123 -0.07700
C 	C 	0.08380 0.46741 0.57654 -0.09000
C 	C 	0.02990 0.45690 0.63185 0.15100
C 	C 	0.94910 0.38205 0.64285 -0.09600
C 	C 	0.92650 0.31599 0.59703 -0.07000
C 	C 	0.98300 0.32500 0.54261 0.00500
C 	C 	0.84240 0.23222 0.60697 0.36600
C 	C 	0.99470 0.52960 0.72638 -0.00200
C 	C 	0.03510 0.61872 0.75859 0.02700
C 	C 	0.88670 0.73668 0.73234 0.16500
C 	C 	0.86550 0.82439 0.70363 -0.10000
C 	C 	0.75420 0.86820 0.70752 -0.06300
C 	C 	0.66010 0.82260 0.73776 -0.02000
C 	C 	0.68020 0.73265 0.76400 -0.02400
C 	C 	0.79380 0.69090 0.76218 -0.12400
C 	C 	0.58160 0.67880 0.79568 0.28700
C 	C 	0.74130 0.96610 0.68001 0.36000
C 	C 	0.38650 0.58277 0.97091 0.37300
C 	C 	0.44100 0.59750 0.03123 -0.07800
C 	C 	0.41620 0.53259 0.07654 -0.08900
C 	C 	0.47010 0.54310 0.13185 0.15000
C 	C 	0.55090 0.61795 0.14285 -0.09600
C 	C 	0.57350 0.68401 0.09703 -0.07000
C 	C 	0.51700 0.67500 0.04261 0.00600
C 	C 	0.65760 0.76778 0.10697 0.36600
C 	C 	0.50530 0.47040 0.22638 -0.00300
C 	C 	0.46490 0.38128 0.25859 0.02900
C 	C 	0.61330 0.26332 0.23234 0.16400
C 	C 	0.63450 0.17561 0.20363 -0.10000
C 	C 	0.74580 0.13180 0.20752 -0.06300
C 	C 	0.83990 0.17740 0.23776 -0.02000
C 	C 	0.81980 0.26735 0.26400 -0.02400
C 	C 	0.70620 0.30910 0.26218 -0.12400
C 	C 	0.91840 0.32120 0.29568 0.28700
C 	C 	0.75870 0.03390 0.18001 0.36000
C 	C 	0.88650 0.91723 0.02909 0.37100
C 	C 	0.94100 0.90250 0.96877 -0.07500
C 	C 	0.91620 0.96741 0.92346 -0.09000
C 	C 	0.97010 0.95690 0.86815 0.15300
C 	C 	0.05090 0.88205 0.85715 -0.09900
C 	C 	0.07350 0.81599 0.90297 -0.06800
C 	C 	0.01700 0.82500 0.95739 0.00300
C 	C 	0.15760 0.73222 0.89303 0.36500
C 	C 	0.00530 0.02960 0.77362 -0.00100
C 	C 	0.96490 0.11872 0.74141 0.02600
C 	C 	0.11330 0.23668 0.76766 0.16400
C 	C 	0.13450 0.32439 0.79637 -0.10000
C 	C 	0.24580 0.36820 0.79248 -0.06300
C 	C 	0.33990 0.32260 0.76224 -0.02000
C 	C 	0.31980 0.23265 0.73600 -0.02400
C 	C 	0.20620 0.19090 0.73782 -0.12300
C 	C 	0.41840 0.17880 0.70432 0.28700
C 	C 	0.25870 0.46610 0.81999 0.36000
C 	C 	0.61350 0.08277 0.52909 0.37300
C 	C 	0.55900 0.09750 0.46877 -0.07800
C 	C 	0.58380 0.03259 0.42346 -0.08900
C 	C 	0.52990 0.04310 0.36815 0.15100
C 	C 	0.44910 0.11795 0.35715 -0.09600
C 	C 	0.42650 0.18401 0.40297 -0.07000
C 	C 	0.48300 0.17500 0.45739 0.00600
C 	C 	0.34240 0.26778 0.39303 0.36600
C 	C 	0.49470 0.97040 0.27362 -0.00400
C 	C 	0.53510 0.88128 0.24141 0.02900
C 	C 	0.38670 0.76332 0.26766 0.16400
C 	C 	0.36550 0.67561 0.29637 -0.10000
C 	C 	0.25420 0.63180 0.29248 -0.06300
C 	C 	0.16010 0.67740 0.26224 -0.02000
C 	C 	0.18020 0.76735 0.23600 -0.02400
C 	C 	0.29380 0.80910 0.23782 -0.12300
C 	C 	0.08160 0.82120 0.20432 0.28700
C 	C 	0.24130 0.53390 0.31999 0.36000
O 	O 	0.18470 0.48610 0.46396 -0.48900
O 	O 	0.07900 0.35946 0.43027 -0.46300
O 	O 	0.77100 0.23377 0.65088 -0.44600
O 	O 	0.84935 0.16609 0.56874 -0.49600
O 	O 	0.06210 0.52570 0.67263 -0.20700
O 	O 	0.00326 0.70505 0.72796 -0.21800
O 	O 	0.47733 0.71872 0.79776 -0.41700
O 	O 	0.60520 0.59976 0.81886 -0.29300
O 	O 	0.64500 0.01293 0.69060 -0.44900
O 	O 	0.82730 0.99842 0.65055 -0.51100
O 	O 	0.31530 0.51390 0.96396 -0.48900
O 	O 	0.42100 0.64054 0.93027 -0.46300
O 	O 	0.72900 0.76623 0.15088 -0.44600
O 	O 	0.65065 0.83391 0.06874 -0.49600
O 	O 	0.43790 0.47430 0.17263 -0.20700
O 	O 	0.49674 0.29495 0.22796 -0.21700
O 	O 	0.02267 0.28128 0.29776 -0.41700
O 	O 	0.89480 0.40024 0.31886 -0.29300
O 	O 	0.85500 0.98707 0.19060 -0.44900
O 	O 	0.67270 0.00158 0.15055 -0.51000
O 	O 	0.81530 0.98610 0.03604 -0.48900
O 	O 	0.92100 0.85946 0.06973 -0.46300
O 	O 	0.22900 0.73377 0.84912 -0.44500
O 	O 	0.15065 0.66609 0.93126 -0.49600
O 	O 	0.93790 0.02570 0.82737 -0.20900
O 	O 	0.99674 0.20505 0.77204 -0.21700
O 	O 	0.52267 0.21872 0.70224 -0.41700
O 	O 	0.39480 0.09976 0.68114 -0.29300
O 	O 	0.35500 0.51293 0.80940 -0.44800
O 	O 	0.17270 0.49842 0.84945 -0.51100
O 	O 	0.68470 0.01390 0.53604 -0.48900
O 	O 	0.57900 0.14054 0.56973 -0.46300
O 	O 	0.27100 0.26623 0.34912 -0.44500
O 	O 	0.34935 0.33391 0.43126 -0.49600
O 	O 	0.56210 0.97430 0.32737 -0.20700
O 	O 	0.50326 0.79495 0.27204 -0.21800
O 	O 	0.97733 0.78128 0.20224 -0.41700
O 	O 	0.10520 0.90024 0.18114 -0.29400
O 	O 	0.14500 0.48707 0.30940 -0.44800
O 	O 	0.32730 0.50158 0.34945 -0.51100
