data_crystal

_cell_length_a 8.77960
_cell_length_b 10.02970
_cell_length_c 10.15610
_cell_angle_alpha 119.58700
_cell_angle_beta  115.60700
_cell_angle_gamma 90.00450

_symmetry_space_group_name_	'P 1'
_symmetry_space_group_name_H-M	'P 1'

loop_
_symmetry_equiv_pos_as_xyz
  x,y,z

loop_
_atom_site_label
_atom_site_type_symbol
_atom_site_fract_x
_atom_site_fract_y
_atom_site_fract_z
_atom_site_charge
Zn	Zn	0.97961 0.16314 0.27542 1.11200
Zn	Zn	0.20419 0.88772 0.72458 1.17800
H 	H 	0.84900 0.85260 0.24600 0.15600
H 	H 	0.87530 0.76870 0.34080 0.07500
H 	H 	0.00260 0.18390 0.87800 0.15700
H 	H 	0.04370 0.27560 0.05620 0.14700
H 	H 	0.10300 0.60660 0.75400 0.20400
H 	H 	0.03450 0.42790 0.65920 0.15700
H 	H 	0.62460 0.30590 0.12200 0.09200
H 	H 	0.48750 0.21940 0.94380 0.14900
C 	C 	0.02960 0.98090 0.45600 0.26700
C 	C 	0.09600 0.07930 0.00380 0.21500
C 	C 	0.07360 0.52490 0.54400 0.22500
C 	C 	0.59220 0.07550 0.99620 0.22100
N 	N 	0.06400 0.10980 0.45280 -0.24400
N 	N 	0.20350 0.21720 0.61280 -0.08000
N 	N 	0.89750 0.84950 0.32740 -0.43900
N 	N 	0.14310 0.00750 0.61060 -0.26200
N 	N 	0.24940 0.15900 0.70560 -0.08900
N 	N 	0.13560 0.93080 0.10640 -0.08600
N 	N 	0.15720 0.86240 0.97440 -0.07500
N 	N 	0.09540 0.07130 0.13120 -0.23600
N 	N 	0.13340 0.95280 0.90500 -0.28000
N 	N 	0.06260 0.19980 0.98220 -0.32800
N 	N 	0.11120 0.65700 0.54720 -0.27600
N 	N 	0.09070 0.60440 0.38720 -0.06600
N 	N 	0.07010 0.52210 0.67260 -0.38600
N 	N 	0.03250 0.39690 0.38940 -0.25300
N 	N 	0.04380 0.45340 0.29440 -0.07000
N 	N 	0.52920 0.82440 0.89360 -0.08600
N 	N 	0.68280 0.88800 0.02560 -0.12500
N 	N 	0.46420 0.94010 0.86880 -0.29200
N 	N 	0.72840 0.04780 0.09500 -0.31400
N 	N 	0.58040 0.21760 0.01780 -0.36800
