data_crystal

_cell_length_a 8.66600
_cell_length_b 13.18700
_cell_length_c 14.08330
_cell_angle_alpha 62.08390
_cell_angle_beta  84.11800
_cell_angle_gamma 77.35610

_symmetry_space_group_name_	'P 1'
_symmetry_space_group_name_H-M	'P 1'

loop_
_symmetry_equiv_pos_as_xyz
  x,y,z

loop_
_atom_site_label
_atom_site_type_symbol
_atom_site_fract_x
_atom_site_fract_y
_atom_site_fract_z
_atom_site_charge
Zn	Zn	0.79845 0.10049 0.82360 1.21200
Zn	Zn	0.29845 0.92409 0.17640 1.19900
H 	H 	0.06830 0.10040 0.47000 0.03000
H 	H 	0.31100 0.05320 0.39580 0.10500
H 	H 	0.53310 0.97950 0.66580 0.03200
H 	H 	0.28380 0.01610 0.74280 0.04600
H 	H 	0.68940 0.98210 0.52000 0.07100
H 	H 	0.54330 0.99260 0.34780 0.05300
H 	H 	0.70660 0.99790 0.19660 0.08200
H 	H 	0.96010 0.96880 0.12360 -0.02000
H 	H 	0.16710 0.89710 0.38880 -0.00500
H 	H 	0.92780 0.93220 0.46540 0.07700
H 	H 	0.44910 0.26530 0.91920 0.02900
H 	H 	0.53620 0.44190 0.85840 0.07500
H 	H 	0.50710 0.40290 0.16020 0.07200
H 	H 	0.42300 0.23050 0.22260 0.03400
H 	H 	0.60840 0.58940 0.88660 0.05200
H 	H 	0.58750 0.56460 0.09360 0.06400
H 	H 	0.71940 0.74000 0.82380 0.08600
H 	H 	0.79690 0.91660 0.77060 -0.03000
H 	H 	0.67840 0.91820 0.04660 -0.01900
H 	H 	0.61780 0.73250 0.11180 0.09300
H 	H 	0.56830 0.57040 0.53000 0.02300
H 	H 	0.81100 0.44900 0.60420 0.09500
H 	H 	0.03310 0.64530 0.33420 0.07200
H 	H 	0.78380 0.75890 0.25720 0.02800
H 	H 	0.18940 0.50210 0.48000 0.06300
H 	H 	0.04330 0.34040 0.65220 0.07300
H 	H 	0.20660 0.19450 0.80340 0.09600
H 	H 	0.46010 0.09240 0.87640 -0.00700
H 	H 	0.66710 0.28590 0.61120 -0.00200
H 	H 	0.42780 0.39760 0.53460 0.08900
H 	H 	0.94910 0.18450 0.08080 0.03900
H 	H 	0.03620 0.30030 0.14160 0.07300
H 	H 	0.00710 0.56310 0.83980 0.05900
H 	H 	0.92300 0.45310 0.77740 0.03500
H 	H 	0.10840 0.47600 0.11340 0.04600
H 	H 	0.08750 0.65820 0.90640 0.06500
H 	H 	0.21940 0.56380 0.17620 0.08900
H 	H 	0.29690 0.68720 0.22940 -0.02300
H 	H 	0.17840 0.96480 0.95340 -0.02700
H 	H 	0.11780 0.84430 0.88820 0.08600
C 	C 	0.00150 0.08160 0.66500 0.32000
C 	C 	0.15660 0.05750 0.61420 -0.10200
C 	C 	0.16280 0.07300 0.51060 0.05800
C 	C 	0.30750 0.04840 0.46540 -0.14600
C 	C 	0.44750 0.01680 0.52180 0.12900
C 	C 	0.43900 0.00330 0.62540 -0.07400
C 	C 	0.28980 0.02470 0.67180 0.02700
C 	C 	0.60090 0.99320 0.47920 -0.13100
C 	C 	0.63180 0.98520 0.38680 -0.06400
C 	C 	0.78810 0.96610 0.34080 0.09600
C 	C 	0.79880 0.97840 0.23740 -0.15300
C 	C 	0.95270 0.96060 0.19440 0.09100
C 	C 	0.07290 0.92000 0.34880 0.06800
C 	C 	0.93070 0.93830 0.39540 -0.14000
C 	C 	0.37320 0.11610 0.11860 0.29500
C 	C 	0.42480 0.22980 0.07720 -0.09100
C 	C 	0.46030 0.29350 0.96860 0.03600
C 	C 	0.51220 0.39900 0.93240 -0.12100
C 	C 	0.52900 0.44150 0.00280 0.08800
C 	C 	0.49470 0.37510 0.11080 -0.12100
C 	C 	0.44470 0.27300 0.14820 0.04100
C 	C 	0.58540 0.55180 0.96120 -0.06300
C 	C 	0.60730 0.60380 0.01860 -0.09500
C 	C 	0.65940 0.71690 0.97700 0.13000
C 	C 	0.71280 0.77290 0.87180 -0.17400
C 	C 	0.75570 0.87890 0.84100 0.09400
C 	C 	0.69010 0.88070 0.00220 0.08600
C 	C 	0.65130 0.77110 0.03940 -0.17700
C 	C 	0.50150 0.74660 0.33500 0.32600
C 	C 	0.65660 0.67170 0.38580 -0.12100
C 	C 	0.66280 0.58360 0.48940 0.06000
C 	C 	0.80750 0.51380 0.53460 -0.14500
C 	C 	0.94750 0.53860 0.47820 0.10500
C 	C 	0.93900 0.62870 0.37460 -0.12900
C 	C 	0.78980 0.69650 0.32820 0.05300
C 	C 	0.10090 0.47240 0.52080 -0.07900
C 	C 	0.13180 0.37200 0.61320 -0.08900
C 	C 	0.28810 0.30690 0.65920 0.11900
C 	C 	0.29880 0.21580 0.76260 -0.16000
C 	C 	0.45270 0.15500 0.80560 0.09800
C 	C 	0.57290 0.26880 0.65120 0.08900
C 	C 	0.43070 0.33370 0.60460 -0.15600
C 	C 	0.87320 0.23470 0.88140 0.29200
C 	C 	0.92480 0.30700 0.92280 -0.09100
C 	C 	0.96030 0.26210 0.03140 0.03300
C 	C 	0.01220 0.33140 0.06760 -0.10300
C 	C 	0.02900 0.44430 0.99720 0.06000
C 	C 	0.99470 0.48590 0.88920 -0.09600
C 	C 	0.94470 0.42120 0.85180 0.02500
C 	C 	0.08540 0.51300 0.03880 -0.04200
C 	C 	0.10730 0.62240 0.98140 -0.10900
C 	C 	0.15940 0.69390 0.02300 0.13400
C 	C 	0.21280 0.64470 0.12820 -0.17700
C 	C 	0.25570 0.71990 0.15900 0.09500
C 	C 	0.19010 0.88290 0.99780 0.09300
C 	C 	0.15130 0.81050 0.96060 -0.18200
N 	N 	0.08360 0.93380 0.24600 -0.27800
N 	N 	0.74430 0.93170 0.90120 -0.27100
N 	N 	0.58360 0.17980 0.75400 -0.27100
N 	N 	0.24430 0.83290 0.09880 -0.26900
O 	O 	0.00430 0.06700 0.76020 -0.44300
O 	O 	0.87440 0.10850 0.61280 -0.29100
O 	O 	0.35500 0.07560 0.05520 -0.40300
O 	O 	0.33430 0.06770 0.21660 -0.35000
O 	O 	0.50430 0.82720 0.23980 -0.46100
O 	O 	0.37440 0.72130 0.38720 -0.30600
O 	O 	0.85500 0.13080 0.94480 -0.40900
O 	O 	0.83430 0.28430 0.78340 -0.36800
