data_crystal

_cell_length_a 15.08550
_cell_length_b 15.08550
_cell_length_c 21.51500
_cell_angle_alpha 83.86720
_cell_angle_beta  83.86720
_cell_angle_gamma 65.55560

_symmetry_space_group_name_	'P 1'
_symmetry_space_group_name_H-M	'P 1'

loop_
_symmetry_equiv_pos_as_xyz
  x,y,z

loop_
_atom_site_label
_atom_site_type_symbol
_atom_site_fract_x
_atom_site_fract_y
_atom_site_fract_z
_atom_site_charge
Zn	Zn	0.00965 0.01285 0.68147 1.19000
Zn	Zn	0.95184 0.43236 0.00610 1.21600
Zn	Zn	0.98715 0.99035 0.81853 1.19000
Zn	Zn	0.56764 0.04816 0.49390 1.21700
Zn	Zn	0.99035 0.98715 0.31853 1.19000
Zn	Zn	0.04816 0.56764 0.99390 1.21600
Zn	Zn	0.01285 0.00965 0.18147 1.19000
Zn	Zn	0.43236 0.95184 0.50610 1.21700
H 	H 	0.67780 0.10300 0.83610 -0.03400
H 	H 	0.51220 0.15200 0.83920 0.16000
H 	H 	0.53300 0.11240 0.65660 0.17500
H 	H 	0.69980 0.06260 0.65350 -0.02500
H 	H 	0.26310 0.40930 0.86380 -0.01900
H 	H 	0.39130 0.31470 0.79730 0.14900
H 	H 	0.26330 0.13030 0.79220 0.15700
H 	H 	0.13290 0.22810 0.85720 -0.01800
H 	H 	0.11190 0.55870 0.62190 0.14700
H 	H 	0.08710 0.71830 0.63290 -0.02600
H 	H 	0.03830 0.68110 0.81800 -0.01700
H 	H 	0.06860 0.52040 0.80930 0.16700
H 	H 	0.20880 0.15040 0.63300 -0.02500
H 	H 	0.09440 0.27780 0.68710 0.15700
H 	H 	0.26950 0.42130 0.65480 0.15300
H 	H 	0.38160 0.29360 0.59970 -0.01900
H 	H 	0.93890 0.25210 0.07650 -0.00500
H 	H 	0.82570 0.18930 0.10810 0.07400
H 	H 	0.66580 0.27520 0.08060 0.03600
H 	H 	0.74480 0.48100 0.99190 0.03000
H 	H 	0.89700 0.32220 0.66390 -0.03400
H 	H 	0.84800 0.48780 0.66080 0.16000
H 	H 	0.88760 0.46700 0.84340 0.17500
H 	H 	0.93740 0.30020 0.84650 -0.02500
H 	H 	0.59070 0.73690 0.63620 -0.01900
H 	H 	0.68530 0.60870 0.70270 0.14900
H 	H 	0.86970 0.73670 0.70780 0.15700
H 	H 	0.77190 0.86710 0.64280 -0.01800
H 	H 	0.44130 0.88810 0.87810 0.14700
H 	H 	0.28170 0.91290 0.86710 -0.02600
H 	H 	0.31890 0.96170 0.68200 -0.01700
H 	H 	0.47960 0.93140 0.69070 0.16700
H 	H 	0.84960 0.79120 0.86700 -0.02500
H 	H 	0.72220 0.90560 0.81290 0.15700
H 	H 	0.57870 0.73050 0.84520 0.15300
H 	H 	0.70640 0.61840 0.90030 -0.01900
H 	H 	0.74790 0.06110 0.42350 -0.00500
H 	H 	0.81070 0.17430 0.39190 0.07500
H 	H 	0.72480 0.33420 0.41940 0.03600
H 	H 	0.51900 0.25520 0.50810 0.02900
H 	H 	0.32220 0.89700 0.16390 -0.03400
H 	H 	0.48780 0.84800 0.16080 0.16000
H 	H 	0.46700 0.88760 0.34340 0.17500
H 	H 	0.30020 0.93740 0.34650 -0.02500
H 	H 	0.73690 0.59070 0.13620 -0.01900
H 	H 	0.60870 0.68530 0.20270 0.14900
H 	H 	0.73670 0.86970 0.20780 0.15700
H 	H 	0.86710 0.77190 0.14280 -0.01800
H 	H 	0.88810 0.44130 0.37810 0.14700
H 	H 	0.91290 0.28170 0.36710 -0.02600
H 	H 	0.96170 0.31890 0.18200 -0.01700
H 	H 	0.93140 0.47960 0.19070 0.16700
H 	H 	0.79120 0.84960 0.36700 -0.02500
H 	H 	0.90560 0.72220 0.31290 0.15700
H 	H 	0.73050 0.57870 0.34520 0.15300
H 	H 	0.61840 0.70640 0.40030 -0.01900
H 	H 	0.06110 0.74790 0.92350 -0.00500
H 	H 	0.17430 0.81070 0.89190 0.07400
H 	H 	0.33420 0.72480 0.91940 0.03600
H 	H 	0.25520 0.51900 0.00810 0.03000
H 	H 	0.10300 0.67780 0.33610 -0.03400
H 	H 	0.15200 0.51220 0.33920 0.16000
H 	H 	0.11240 0.53300 0.15660 0.17500
H 	H 	0.06260 0.69980 0.15350 -0.02500
H 	H 	0.40930 0.26310 0.36380 -0.01900
H 	H 	0.31470 0.39130 0.29730 0.14900
H 	H 	0.13030 0.26330 0.29220 0.15700
H 	H 	0.22810 0.13290 0.35720 -0.01800
H 	H 	0.55870 0.11190 0.12190 0.14700
H 	H 	0.71830 0.08710 0.13290 -0.02600
H 	H 	0.68110 0.03830 0.31800 -0.01700
H 	H 	0.52040 0.06860 0.30930 0.16700
H 	H 	0.15040 0.20880 0.13300 -0.02500
H 	H 	0.27780 0.09440 0.18710 0.15700
H 	H 	0.42130 0.26950 0.15480 0.15300
H 	H 	0.29360 0.38160 0.09970 -0.01900
H 	H 	0.25210 0.93890 0.57650 -0.00500
H 	H 	0.18930 0.82570 0.60810 0.07500
H 	H 	0.27520 0.66580 0.58060 0.03600
H 	H 	0.48100 0.74480 0.49190 0.02900
C 	C 	0.70659 0.07999 0.74406 -0.25000
C 	C 	0.64860 0.10560 0.79966 0.22400
C 	C 	0.54986 0.13426 0.80183 -0.35100
C 	C 	0.50654 0.13654 0.74808 0.36300
C 	C 	0.56258 0.11038 0.69283 -0.33600
C 	C 	0.66222 0.08142 0.69086 0.22300
C 	C 	0.81574 0.04614 0.74406 0.44100
C 	C 	0.18624 0.32652 0.86865 -0.22600
C 	C 	0.26289 0.35329 0.84970 0.19100
C 	C 	0.33971 0.29671 0.80960 -0.32000
C 	C 	0.33908 0.21388 0.78831 0.33600
C 	C 	0.26326 0.18646 0.80620 -0.30600
C 	C 	0.18550 0.24490 0.84602 0.18900
C 	C 	0.10636 0.38670 0.91365 0.41800
C 	C 	0.09414 0.52394 0.71540 0.33200
C 	C 	0.09844 0.58324 0.66140 -0.31900
C 	C 	0.08244 0.67864 0.66818 0.19800
C 	C 	0.05967 0.71649 0.72607 -0.23600
C 	C 	0.05420 0.65600 0.77871 0.19900
C 	C 	0.07180 0.56020 0.77375 -0.31200
C 	C 	0.03914 0.82194 0.73230 0.43100
C 	C 	0.30555 0.20969 0.61000 -0.22700
C 	C 	0.22049 0.20529 0.63695 0.20000
C 	C 	0.15230 0.28090 0.66970 -0.31100
C 	C 	0.17164 0.36164 0.67620 0.33300
C 	C 	0.25698 0.36698 0.65020 -0.32300
C 	C 	0.32370 0.29070 0.61720 0.20400
C 	C 	0.37867 0.12695 0.57377 0.42000
C 	C 	0.58677 0.44897 0.01480 0.12000
C 	C 	0.87512 0.28672 0.06530 0.07200
C 	C 	0.80773 0.24873 0.08460 -0.11700
C 	C 	0.71265 0.30005 0.06860 0.01300
C 	C 	0.68761 0.38961 0.03403 -0.04200
C 	C 	0.76051 0.42197 0.01573 0.03100
C 	C 	0.92001 0.29341 0.75594 -0.25000
C 	C 	0.89440 0.35140 0.70034 0.22400
C 	C 	0.86574 0.45014 0.69817 -0.35100
C 	C 	0.86346 0.49346 0.75192 0.36300
C 	C 	0.88962 0.43742 0.80717 -0.33600
C 	C 	0.91858 0.33778 0.80914 0.22300
C 	C 	0.95386 0.18426 0.75594 0.44100
C 	C 	0.67348 0.81376 0.63135 -0.22600
C 	C 	0.64671 0.73711 0.65030 0.19100
C 	C 	0.70329 0.66029 0.69040 -0.31900
C 	C 	0.78612 0.66092 0.71169 0.33600
C 	C 	0.81354 0.73674 0.69380 -0.30600
C 	C 	0.75510 0.81450 0.65398 0.18900
C 	C 	0.61330 0.89364 0.58635 0.41800
C 	C 	0.47606 0.90586 0.78460 0.33200
C 	C 	0.41676 0.90156 0.83860 -0.31900
C 	C 	0.32136 0.91756 0.83182 0.19800
C 	C 	0.28351 0.94033 0.77393 -0.23600
C 	C 	0.34400 0.94580 0.72129 0.19900
C 	C 	0.43980 0.92820 0.72625 -0.31200
C 	C 	0.17806 0.96086 0.76770 0.43100
C 	C 	0.79031 0.69445 0.89000 -0.22700
C 	C 	0.79471 0.77951 0.86305 0.20000
C 	C 	0.71910 0.84770 0.83030 -0.31100
C 	C 	0.63836 0.82836 0.82380 0.33200
C 	C 	0.63302 0.74302 0.84980 -0.32300
C 	C 	0.70930 0.67630 0.88280 0.20400
C 	C 	0.87305 0.62133 0.92623 0.41900
C 	C 	0.55103 0.41323 0.48520 0.12000
C 	C 	0.71328 0.12488 0.43470 0.07200
C 	C 	0.75127 0.19227 0.41540 -0.11700
C 	C 	0.69995 0.28735 0.43140 0.01300
C 	C 	0.61039 0.31239 0.46597 -0.04200
C 	C 	0.57803 0.23949 0.48427 0.03300
C 	C 	0.29341 0.92001 0.25594 -0.25000
C 	C 	0.35140 0.89440 0.20034 0.22400
C 	C 	0.45014 0.86574 0.19817 -0.35100
C 	C 	0.49346 0.86346 0.25192 0.36300
C 	C 	0.43742 0.88962 0.30717 -0.33600
C 	C 	0.33778 0.91858 0.30914 0.22300
C 	C 	0.18426 0.95386 0.25594 0.44100
C 	C 	0.81376 0.67348 0.13135 -0.22600
C 	C 	0.73711 0.64671 0.15030 0.19100
C 	C 	0.66029 0.70329 0.19040 -0.32000
C 	C 	0.66092 0.78612 0.21169 0.33600
C 	C 	0.73674 0.81354 0.19380 -0.30600
C 	C 	0.81450 0.75510 0.15398 0.18900
C 	C 	0.89364 0.61330 0.08635 0.41800
C 	C 	0.90586 0.47606 0.28460 0.33200
C 	C 	0.90156 0.41676 0.33860 -0.31900
C 	C 	0.91756 0.32136 0.33182 0.19800
C 	C 	0.94033 0.28351 0.27393 -0.23600
C 	C 	0.94580 0.34400 0.22129 0.19900
C 	C 	0.92820 0.43980 0.22625 -0.31200
C 	C 	0.96086 0.17806 0.26770 0.43100
C 	C 	0.69445 0.79031 0.39000 -0.22700
C 	C 	0.77951 0.79471 0.36305 0.20000
C 	C 	0.84770 0.71910 0.33030 -0.31100
C 	C 	0.82836 0.63836 0.32380 0.33300
C 	C 	0.74302 0.63302 0.34980 -0.32300
C 	C 	0.67630 0.70930 0.38280 0.20400
C 	C 	0.62133 0.87305 0.42623 0.42000
C 	C 	0.41323 0.55103 0.98520 0.12000
C 	C 	0.12488 0.71328 0.93470 0.07200
C 	C 	0.19227 0.75127 0.91540 -0.11700
C 	C 	0.28735 0.69995 0.93140 0.01300
C 	C 	0.31239 0.61039 0.96597 -0.04200
C 	C 	0.23949 0.57803 0.98427 0.03100
C 	C 	0.07999 0.70659 0.24406 -0.25000
C 	C 	0.10560 0.64860 0.29966 0.22400
C 	C 	0.13426 0.54986 0.30183 -0.35100
C 	C 	0.13654 0.50654 0.24808 0.36300
C 	C 	0.11038 0.56258 0.19283 -0.33600
C 	C 	0.08142 0.66222 0.19086 0.22300
C 	C 	0.04614 0.81574 0.24406 0.44100
C 	C 	0.32652 0.18624 0.36865 -0.22600
C 	C 	0.35329 0.26289 0.34970 0.19100
C 	C 	0.29671 0.33971 0.30960 -0.31900
C 	C 	0.21388 0.33908 0.28831 0.33600
C 	C 	0.18646 0.26326 0.30620 -0.30600
C 	C 	0.24490 0.18550 0.34602 0.18900
C 	C 	0.38670 0.10636 0.41365 0.41800
C 	C 	0.52394 0.09414 0.21540 0.33200
C 	C 	0.58324 0.09844 0.16140 -0.31900
C 	C 	0.67864 0.08244 0.16818 0.19800
C 	C 	0.71649 0.05967 0.22607 -0.23600
C 	C 	0.65600 0.05420 0.27871 0.19900
C 	C 	0.56020 0.07180 0.27375 -0.31200
C 	C 	0.82194 0.03914 0.23230 0.43100
C 	C 	0.20969 0.30555 0.11000 -0.22700
C 	C 	0.20529 0.22049 0.13695 0.20000
C 	C 	0.28090 0.15230 0.16970 -0.31100
C 	C 	0.36164 0.17164 0.17620 0.33200
C 	C 	0.36698 0.25698 0.15020 -0.32300
C 	C 	0.29070 0.32370 0.11720 0.20400
C 	C 	0.12695 0.37867 0.07377 0.41900
C 	C 	0.44897 0.58677 0.51480 0.12000
C 	C 	0.28672 0.87512 0.56530 0.07200
C 	C 	0.24873 0.80773 0.58460 -0.11700
C 	C 	0.30005 0.71265 0.56860 0.01300
C 	C 	0.38961 0.68761 0.53403 -0.04200
C 	C 	0.42197 0.76051 0.51573 0.03300
N 	N 	0.51742 0.41912 0.03912 -0.09200
N 	N 	0.57188 0.52768 0.97630 -0.09100
N 	N 	0.85335 0.37115 0.03108 -0.23700
N 	N 	0.58088 0.48258 0.46088 -0.09200
N 	N 	0.47232 0.42812 0.52370 -0.09100
N 	N 	0.62885 0.14665 0.46892 -0.23800
N 	N 	0.48258 0.58088 0.96088 -0.09200
N 	N 	0.42812 0.47232 0.02370 -0.09100
N 	N 	0.14665 0.62885 0.96892 -0.23700
N 	N 	0.41912 0.51742 0.53912 -0.09200
N 	N 	0.52768 0.57188 0.47630 -0.09100
N 	N 	0.37115 0.85335 0.53108 -0.23800
O 	O 	0.40930 0.15660 0.74586 -0.33000
O 	O 	0.86437 0.03431 0.69224 -0.47000
O 	O 	0.84988 0.03358 0.79698 -0.49700
O 	O 	0.04187 0.35491 0.93551 -0.45400
O 	O 	0.10824 0.46336 0.92864 -0.48600
O 	O 	0.10190 0.42968 0.71407 -0.32100
O 	O 	0.04648 0.87082 0.68187 -0.49000
O 	O 	0.01671 0.85399 0.78592 -0.47600
O 	O 	0.35366 0.05918 0.56376 -0.46600
O 	O 	0.45985 0.12993 0.55499 -0.47700
O 	O 	0.84340 0.59070 0.75414 -0.33000
O 	O 	0.96569 0.13563 0.80776 -0.47000
O 	O 	0.96642 0.15012 0.70302 -0.49700
O 	O 	0.64509 0.95813 0.56449 -0.45300
O 	O 	0.53664 0.89176 0.57136 -0.48600
O 	O 	0.57032 0.89810 0.78593 -0.32100
O 	O 	0.12918 0.95352 0.81813 -0.49000
O 	O 	0.14601 0.98329 0.71408 -0.47600
O 	O 	0.94082 0.64634 0.93624 -0.46500
O 	O 	0.87007 0.54015 0.94501 -0.47600
O 	O 	0.59070 0.84340 0.25414 -0.33000
O 	O 	0.13563 0.96569 0.30776 -0.47000
O 	O 	0.15012 0.96642 0.20302 -0.49700
O 	O 	0.95813 0.64509 0.06449 -0.45400
O 	O 	0.89176 0.53664 0.07136 -0.48600
O 	O 	0.89810 0.57032 0.28593 -0.32100
O 	O 	0.95352 0.12918 0.31813 -0.49000
O 	O 	0.98329 0.14601 0.21408 -0.47600
O 	O 	0.64634 0.94082 0.43624 -0.46600
O 	O 	0.54015 0.87007 0.44501 -0.47700
O 	O 	0.15660 0.40930 0.24586 -0.33000
O 	O 	0.03431 0.86437 0.19224 -0.47000
O 	O 	0.03358 0.84988 0.29698 -0.49700
O 	O 	0.35491 0.04187 0.43551 -0.45300
O 	O 	0.46336 0.10824 0.42864 -0.48600
O 	O 	0.42968 0.10190 0.21407 -0.32100
O 	O 	0.87082 0.04648 0.18187 -0.49000
O 	O 	0.85399 0.01671 0.28592 -0.47600
O 	O 	0.05918 0.35366 0.06376 -0.46500
O 	O 	0.12993 0.45985 0.05499 -0.47600
