data_crystal

_cell_length_a 9.05410
_cell_length_b 10.44430
_cell_length_c 18.20060
_cell_angle_alpha 90.00000
_cell_angle_beta  90.00000
_cell_angle_gamma 90.00000

_symmetry_space_group_name_	'P 1'
_symmetry_space_group_name_H-M	'P 1'

loop_
_symmetry_equiv_pos_as_xyz
  x,y,z

loop_
_atom_site_label
_atom_site_type_symbol
_atom_site_fract_x
_atom_site_fract_y
_atom_site_fract_z
_atom_site_charge
Zn	Zn	0.13211 0.01884 0.59969 1.19500
Zn	Zn	0.63211 0.98116 0.40031 1.19400
Zn	Zn	0.13211 0.48116 0.09969 1.19600
Zn	Zn	0.63211 0.51884 0.90031 1.19400
H 	H 	0.32780 0.03840 0.47020 -0.03800
H 	H 	0.72740 0.63550 0.60790 0.00400
H 	H 	0.32660 0.69680 0.73360 0.18400
H 	H 	0.23980 0.79740 0.69480 0.15900
H 	H 	0.96660 0.68450 0.71090 0.06400
H 	H 	0.85230 0.53850 0.78640 -0.01900
H 	H 	0.60390 0.80360 0.87120 -0.01000
H 	H 	0.70730 0.95710 0.79590 0.06900
H 	H 	0.82780 0.96160 0.52980 -0.03500
H 	H 	0.22740 0.36450 0.39210 0.00700
H 	H 	0.82660 0.30320 0.26640 0.17700
H 	H 	0.73980 0.20260 0.30520 0.15500
H 	H 	0.46660 0.31550 0.28910 0.07000
H 	H 	0.35230 0.46150 0.21360 -0.01600
H 	H 	0.10390 0.19640 0.12880 -0.00600
H 	H 	0.20730 0.04290 0.20410 0.07000
H 	H 	0.32780 0.46160 0.97020 -0.03400
H 	H 	0.72740 0.86450 0.10790 0.00400
H 	H 	0.32660 0.80320 0.23360 0.18400
H 	H 	0.23980 0.70260 0.19480 0.15900
H 	H 	0.96660 0.81550 0.21090 0.06300
H 	H 	0.85230 0.96150 0.28640 -0.02000
H 	H 	0.60390 0.69640 0.37120 -0.01000
H 	H 	0.70730 0.54290 0.29590 0.06800
H 	H 	0.82780 0.53840 0.02980 -0.03100
H 	H 	0.22740 0.13550 0.89210 0.00600
H 	H 	0.82660 0.19680 0.76640 0.17700
H 	H 	0.73980 0.29740 0.80520 0.15400
H 	H 	0.46660 0.18450 0.78910 0.07000
H 	H 	0.35230 0.03850 0.71360 -0.01600
H 	H 	0.10390 0.30360 0.62880 -0.00600
H 	H 	0.20730 0.45710 0.70410 0.07100
C 	C 	0.37330 0.97590 0.49880 0.09100
C 	C 	0.64690 0.68940 0.60100 0.10300
C 	C 	0.42150 0.75710 0.64610 0.15400
C 	C 	0.41430 0.84130 0.58431 -0.04300
C 	C 	0.53100 0.83820 0.53635 0.11200
C 	C 	0.92040 0.93430 0.69560 0.27800
C 	C 	0.89280 0.71080 0.74310 -0.09100
C 	C 	0.84950 0.83740 0.74590 -0.01200
C 	C 	0.82420 0.62400 0.78890 0.05900
C 	C 	0.67770 0.77980 0.83850 0.05900
C 	C 	0.73960 0.87270 0.79370 -0.08800
C 	C 	0.87330 0.02410 0.50120 0.07000
C 	C 	0.14690 0.31060 0.39900 0.10700
C 	C 	0.92150 0.24290 0.35390 0.13900
C 	C 	0.91430 0.15870 0.41569 -0.06000
C 	C 	0.03100 0.16180 0.46365 0.13200
C 	C 	0.42040 0.06570 0.30440 0.31000
C 	C 	0.39280 0.28920 0.25690 -0.08400
C 	C 	0.34950 0.16260 0.25410 -0.01700
C 	C 	0.32420 0.37600 0.21110 0.06000
C 	C 	0.17770 0.22020 0.16150 0.05900
C 	C 	0.23960 0.12730 0.20630 -0.08100
C 	C 	0.37330 0.52410 0.99880 0.08500
C 	C 	0.64690 0.81060 0.10100 0.10400
C 	C 	0.42150 0.74290 0.14610 0.15400
C 	C 	0.41430 0.65870 0.08431 -0.04300
C 	C 	0.53100 0.66180 0.03635 0.11300
C 	C 	0.92040 0.56570 0.19560 0.28500
C 	C 	0.89280 0.78920 0.24310 -0.08900
C 	C 	0.84950 0.66260 0.24590 -0.01400
C 	C 	0.82420 0.87600 0.28890 0.05800
C 	C 	0.67770 0.72020 0.33850 0.05800
C 	C 	0.73960 0.62730 0.29370 -0.08700
C 	C 	0.87330 0.47590 0.00120 0.06200
C 	C 	0.14690 0.18940 0.89900 0.10700
C 	C 	0.92150 0.25710 0.85390 0.14000
C 	C 	0.91430 0.34130 0.91569 -0.06200
C 	C 	0.03100 0.33820 0.96365 0.13400
C 	C 	0.42040 0.43430 0.80440 0.31200
C 	C 	0.39280 0.21080 0.75690 -0.08300
C 	C 	0.34950 0.33740 0.75410 -0.01800
C 	C 	0.32420 0.12400 0.71110 0.06000
C 	C 	0.17770 0.27980 0.66150 0.05900
C 	C 	0.23960 0.37270 0.70630 -0.08100
N 	N 	0.50500 0.92600 0.48101 -0.29600
N 	N 	0.65320 0.76340 0.54224 -0.16800
N 	N 	0.31170 0.93010 0.56010 -0.26100
N 	N 	0.54110 0.68140 0.65165 -0.15000
N 	N 	0.31690 0.74950 0.69760 -0.33100
N 	N 	0.72020 0.65710 0.83634 -0.27100
N 	N 	0.00500 0.07400 0.51899 -0.28800
N 	N 	0.15320 0.23660 0.45776 -0.16800
N 	N 	0.81170 0.06990 0.43990 -0.25900
N 	N 	0.04110 0.31860 0.34835 -0.13800
N 	N 	0.81690 0.25050 0.30240 -0.32700
N 	N 	0.22020 0.34290 0.16366 -0.26900
N 	N 	0.50500 0.57400 0.98101 -0.29500
N 	N 	0.65320 0.73660 0.04224 -0.16800
N 	N 	0.31170 0.56990 0.06010 -0.26100
N 	N 	0.54110 0.81860 0.15165 -0.15000
N 	N 	0.31690 0.75050 0.19760 -0.33100
N 	N 	0.72020 0.84290 0.33634 -0.27100
N 	N 	0.00500 0.42600 0.01899 -0.28400
N 	N 	0.15320 0.26340 0.95776 -0.16800
N 	N 	0.81170 0.43010 0.93990 -0.25800
N 	N 	0.04110 0.18140 0.84835 -0.13900
N 	N 	0.81690 0.24950 0.80240 -0.32700
N 	N 	0.22020 0.15710 0.66366 -0.26900
O 	O 	0.03790 0.89370 0.66284 -0.44200
O 	O 	0.86670 0.04020 0.68735 -0.32000
O 	O 	0.53790 0.10630 0.33716 -0.47000
O 	O 	0.36670 0.95980 0.31265 -0.32000
O 	O 	0.03790 0.60630 0.16284 -0.44700
O 	O 	0.86670 0.45980 0.18735 -0.32400
O 	O 	0.53790 0.39370 0.83716 -0.47100
O 	O 	0.36670 0.54020 0.81265 -0.32300
