data_crystal

_cell_length_a 9.67900
_cell_length_b 24.11400
_cell_length_c 24.45000
_cell_angle_alpha 90.00000
_cell_angle_beta  90.00000
_cell_angle_gamma 90.00000

_symmetry_space_group_name_	'P 1'
_symmetry_space_group_name_H-M	'P 1'

loop_
_symmetry_equiv_pos_as_xyz
  x,y,z

loop_
_atom_site_label
_atom_site_type_symbol
_atom_site_fract_x
_atom_site_fract_y
_atom_site_fract_z
_atom_site_charge
Zn	Zn	0.01511 0.82535 0.49878 1.16800
Zn	Zn	0.00204 0.99821 0.67613 1.16600
Zn	Zn	0.48489 0.17465 0.99878 1.16900
Zn	Zn	0.49796 0.00179 0.17613 1.16700
Zn	Zn	0.98489 0.32535 0.00122 1.16800
Zn	Zn	0.99796 0.49821 0.82387 1.16800
Zn	Zn	0.51511 0.67465 0.50122 1.16900
Zn	Zn	0.50204 0.50179 0.32387 1.16800
Zn	Zn	0.98489 0.17465 0.50122 1.16800
Zn	Zn	0.99796 0.00179 0.32387 1.16600
Zn	Zn	0.51511 0.82535 0.00122 1.16900
Zn	Zn	0.50204 0.99821 0.82387 1.16700
Zn	Zn	0.01511 0.67465 0.99878 1.16800
Zn	Zn	0.00204 0.50179 0.17613 1.16800
Zn	Zn	0.48489 0.32535 0.49878 1.16900
Zn	Zn	0.49796 0.49821 0.67613 1.16800
H 	H 	0.97800 0.94550 0.55770 -0.05900
H 	H 	0.30280 0.96520 0.72560 -0.05100
H 	H 	0.97390 0.72560 0.58360 -0.00100
H 	H 	0.00610 0.05170 0.79560 -0.00500
H 	H 	0.71850 0.77380 0.46710 -0.05200
H 	H 	0.20540 0.05140 0.85700 -0.00500
H 	H 	0.07390 0.93890 0.43840 -0.05400
H 	H 	0.77000 0.66480 0.58680 -0.00200
H 	H 	0.13610 0.80830 0.61560 -0.00500
H 	H 	0.80820 0.89410 0.32350 0.00100
H 	H 	0.13130 0.87690 0.69060 -0.01000
H 	H 	0.81150 0.82120 0.39370 -0.00400
H 	H 	0.52200 0.05450 0.05770 -0.06500
H 	H 	0.19720 0.03480 0.22560 -0.05300
H 	H 	0.52610 0.27440 0.08360 -0.00200
H 	H 	0.49390 0.94830 0.29560 -0.00500
H 	H 	0.78150 0.22620 0.96710 -0.05300
H 	H 	0.29460 0.94860 0.35700 -0.00500
H 	H 	0.42610 0.06110 0.93840 -0.05500
H 	H 	0.73000 0.33520 0.08680 -0.00200
H 	H 	0.36390 0.19170 0.11560 -0.00400
H 	H 	0.69180 0.10590 0.82350 -0.00000
H 	H 	0.36870 0.12310 0.19060 -0.00900
H 	H 	0.68850 0.17880 0.89370 -0.00400
H 	H 	0.02200 0.44550 0.94230 -0.06300
H 	H 	0.69720 0.46520 0.77440 -0.05300
H 	H 	0.02610 0.22560 0.91640 -0.00100
H 	H 	0.99390 0.55170 0.70440 -0.00500
H 	H 	0.28150 0.27380 0.03290 -0.05200
H 	H 	0.79460 0.55140 0.64300 -0.00500
H 	H 	0.92610 0.43890 0.06160 -0.05400
H 	H 	0.23000 0.16480 0.91320 -0.00200
H 	H 	0.86390 0.30830 0.88440 -0.00400
H 	H 	0.19180 0.39410 0.17650 0.00000
H 	H 	0.86870 0.37690 0.80940 -0.01000
H 	H 	0.18850 0.32120 0.10630 -0.00300
H 	H 	0.47800 0.55450 0.44230 -0.06400
H 	H 	0.80280 0.53480 0.27440 -0.05300
H 	H 	0.47390 0.77440 0.41640 -0.00200
H 	H 	0.50610 0.44830 0.20440 -0.00600
H 	H 	0.21850 0.72620 0.53290 -0.05200
H 	H 	0.70540 0.44860 0.14300 -0.00500
H 	H 	0.57390 0.56110 0.56160 -0.05600
H 	H 	0.27000 0.83520 0.41320 -0.00200
H 	H 	0.63610 0.69170 0.38440 -0.00400
H 	H 	0.30820 0.60590 0.67650 0.00000
H 	H 	0.63130 0.62310 0.30940 -0.00900
H 	H 	0.31150 0.67880 0.60630 -0.00400
H 	H 	0.02200 0.05450 0.44230 -0.05900
H 	H 	0.69720 0.03480 0.27440 -0.05100
H 	H 	0.02610 0.27440 0.41640 -0.00100
H 	H 	0.99390 0.94830 0.20440 -0.00500
H 	H 	0.28150 0.22620 0.53290 -0.05200
H 	H 	0.79460 0.94860 0.14300 -0.00500
H 	H 	0.92610 0.06110 0.56160 -0.05400
H 	H 	0.23000 0.33520 0.41320 -0.00200
H 	H 	0.86390 0.19170 0.38440 -0.00500
H 	H 	0.19180 0.10590 0.67650 0.00100
H 	H 	0.86870 0.12310 0.30940 -0.01000
H 	H 	0.18850 0.17880 0.60630 -0.00400
H 	H 	0.47800 0.94550 0.94230 -0.06500
H 	H 	0.80280 0.96520 0.77440 -0.05300
H 	H 	0.47390 0.72560 0.91640 -0.00200
H 	H 	0.50610 0.05170 0.70440 -0.00500
H 	H 	0.21850 0.77380 0.03290 -0.05300
H 	H 	0.70540 0.05140 0.64300 -0.00500
H 	H 	0.57390 0.93890 0.06160 -0.05500
H 	H 	0.27000 0.66480 0.91320 -0.00200
H 	H 	0.63610 0.80830 0.88440 -0.00400
H 	H 	0.30820 0.89410 0.17650 -0.00000
H 	H 	0.63130 0.87690 0.80940 -0.00900
H 	H 	0.31150 0.82120 0.10630 -0.00400
H 	H 	0.97800 0.55450 0.05770 -0.06300
H 	H 	0.30280 0.53480 0.22560 -0.05300
H 	H 	0.97390 0.77440 0.08360 -0.00100
H 	H 	0.00610 0.44830 0.29560 -0.00500
H 	H 	0.71850 0.72620 0.96710 -0.05200
H 	H 	0.20540 0.44860 0.35700 -0.00500
H 	H 	0.07390 0.56110 0.93840 -0.05400
H 	H 	0.77000 0.83520 0.08680 -0.00200
H 	H 	0.13610 0.69170 0.11560 -0.00400
H 	H 	0.80820 0.60590 0.82350 0.00000
H 	H 	0.13130 0.62310 0.19060 -0.01000
H 	H 	0.81150 0.67880 0.89370 -0.00300
H 	H 	0.52200 0.44550 0.55770 -0.06400
H 	H 	0.19720 0.46520 0.72560 -0.05300
H 	H 	0.52610 0.22560 0.58360 -0.00200
H 	H 	0.49390 0.55170 0.79560 -0.00600
H 	H 	0.78150 0.27380 0.46710 -0.05200
H 	H 	0.29460 0.55140 0.85700 -0.00500
H 	H 	0.42610 0.43890 0.43840 -0.05600
H 	H 	0.73000 0.16480 0.58680 -0.00200
H 	H 	0.36390 0.30830 0.61560 -0.00400
H 	H 	0.69180 0.39410 0.32350 0.00000
H 	H 	0.36870 0.37690 0.69060 -0.00900
H 	H 	0.68850 0.32120 0.39370 -0.00400
C 	C 	0.01720 0.91900 0.58190 0.08900
C 	C 	0.25340 0.98760 0.75080 0.07000
C 	C 	0.89660 0.72780 0.55980 -0.01100
C 	C 	0.09190 0.03400 0.78840 -0.00500
C 	C 	0.75840 0.75370 0.49670 0.08200
C 	C 	0.20160 0.03410 0.82210 -0.01000
C 	C 	0.00780 0.91820 0.41820 0.06900
C 	C 	0.78470 0.69430 0.56180 -0.01300
C 	C 	0.10260 0.84520 0.61270 -0.01900
C 	C 	0.86420 0.89420 0.35550 -0.01600
C 	C 	0.09950 0.88280 0.65430 -0.00600
C 	C 	0.86490 0.85430 0.39450 -0.00900
C 	C 	0.48280 0.08100 0.08190 0.09600
C 	C 	0.24660 0.01240 0.25080 0.07700
C 	C 	0.60340 0.27220 0.05980 -0.01200
C 	C 	0.40810 0.96600 0.28840 -0.00600
C 	C 	0.74160 0.24630 0.99670 0.08500
C 	C 	0.29840 0.96590 0.32210 -0.01100
C 	C 	0.49220 0.08180 0.91820 0.07600
C 	C 	0.71530 0.30570 0.06180 -0.01300
C 	C 	0.39740 0.15480 0.11270 -0.01800
C 	C 	0.63580 0.10580 0.85550 -0.01600
C 	C 	0.40050 0.11720 0.15430 -0.00600
C 	C 	0.63510 0.14570 0.89450 -0.00900
C 	C 	0.98280 0.41900 0.91810 0.09600
C 	C 	0.74660 0.48760 0.74920 0.07600
C 	C 	0.10340 0.22780 0.94020 -0.01100
C 	C 	0.90810 0.53400 0.71160 -0.00600
C 	C 	0.24160 0.25370 0.00330 0.08100
C 	C 	0.79840 0.53410 0.67790 -0.01100
C 	C 	0.99220 0.41820 0.08180 0.07100
C 	C 	0.21530 0.19430 0.93820 -0.01200
C 	C 	0.89740 0.34520 0.88730 -0.01900
C 	C 	0.13580 0.39420 0.14450 -0.01600
C 	C 	0.90050 0.38280 0.84570 -0.00600
C 	C 	0.13510 0.35430 0.10550 -0.00900
C 	C 	0.51720 0.58100 0.41810 0.09600
C 	C 	0.75340 0.51240 0.24920 0.07600
C 	C 	0.39660 0.77220 0.44020 -0.01100
C 	C 	0.59190 0.46600 0.21160 -0.00600
C 	C 	0.25840 0.74630 0.50330 0.08100
C 	C 	0.70160 0.46590 0.17790 -0.01100
C 	C 	0.50780 0.58180 0.58180 0.07600
C 	C 	0.28470 0.80570 0.43820 -0.01300
C 	C 	0.60260 0.65480 0.38730 -0.01800
C 	C 	0.36420 0.60580 0.64450 -0.01600
C 	C 	0.59950 0.61720 0.34570 -0.00600
C 	C 	0.36490 0.64570 0.60550 -0.00900
C 	C 	0.98280 0.08100 0.41810 0.08900
C 	C 	0.74660 0.01240 0.24920 0.07000
C 	C 	0.10340 0.27220 0.44020 -0.01100
C 	C 	0.90810 0.96600 0.21160 -0.00500
C 	C 	0.24160 0.24630 0.50330 0.08200
C 	C 	0.79840 0.96590 0.17790 -0.01000
C 	C 	0.99220 0.08180 0.58180 0.06900
C 	C 	0.21530 0.30570 0.43820 -0.01300
C 	C 	0.89740 0.15480 0.38730 -0.01900
C 	C 	0.13580 0.10580 0.64450 -0.01600
C 	C 	0.90050 0.11720 0.34570 -0.00600
C 	C 	0.13510 0.14570 0.60550 -0.00900
C 	C 	0.51720 0.91900 0.91810 0.09600
C 	C 	0.75340 0.98760 0.74920 0.07700
C 	C 	0.39660 0.72780 0.94020 -0.01200
C 	C 	0.59190 0.03400 0.71160 -0.00600
C 	C 	0.25840 0.75370 0.00330 0.08500
C 	C 	0.70160 0.03410 0.67790 -0.01100
C 	C 	0.50780 0.91820 0.08180 0.07600
C 	C 	0.28470 0.69430 0.93820 -0.01300
C 	C 	0.60260 0.84520 0.88730 -0.01800
C 	C 	0.36420 0.89420 0.14450 -0.01600
C 	C 	0.59950 0.88280 0.84570 -0.00600
C 	C 	0.36490 0.85430 0.10550 -0.00900
C 	C 	0.01720 0.58100 0.08190 0.09600
C 	C 	0.25340 0.51240 0.25080 0.07600
C 	C 	0.89660 0.77220 0.05980 -0.01100
C 	C 	0.09190 0.46600 0.28840 -0.00600
C 	C 	0.75840 0.74630 0.99670 0.08100
C 	C 	0.20160 0.46590 0.32210 -0.01100
C 	C 	0.00780 0.58180 0.91820 0.07100
C 	C 	0.78470 0.80570 0.06180 -0.01200
C 	C 	0.10260 0.65480 0.11270 -0.01900
C 	C 	0.86420 0.60580 0.85550 -0.01600
C 	C 	0.09950 0.61720 0.15430 -0.00600
C 	C 	0.86490 0.64570 0.89450 -0.00900
C 	C 	0.48280 0.41900 0.58190 0.09600
C 	C 	0.24660 0.48760 0.75080 0.07600
C 	C 	0.60340 0.22780 0.55980 -0.01100
C 	C 	0.40810 0.53400 0.78840 -0.00600
C 	C 	0.74160 0.25370 0.49670 0.08100
C 	C 	0.29840 0.53410 0.82210 -0.01100
C 	C 	0.49220 0.41820 0.41820 0.07600
C 	C 	0.71530 0.19430 0.56180 -0.01300
C 	C 	0.39740 0.34520 0.61270 -0.01800
C 	C 	0.63580 0.39420 0.35550 -0.01600
C 	C 	0.40050 0.38280 0.65430 -0.00600
C 	C 	0.63510 0.35430 0.39450 -0.00900
N 	N 	0.88160 0.76540 0.51810 -0.28900
N 	N 	0.69680 0.71060 0.52130 -0.28300
N 	N 	0.12150 0.00510 0.74280 -0.28300
N 	N 	0.30590 0.00550 0.79820 -0.28500
N 	N 	0.05000 0.86870 0.56640 -0.29500
N 	N 	0.04330 0.92980 0.63460 -0.30000
N 	N 	0.95490 0.86910 0.43540 -0.29300
N 	N 	0.95680 0.93490 0.36930 -0.28200
N 	N 	0.61840 0.23460 0.01810 -0.29100
N 	N 	0.80320 0.28940 0.02130 -0.28400
N 	N 	0.37850 0.99490 0.24280 -0.28500
N 	N 	0.19410 0.99450 0.29820 -0.28800
N 	N 	0.45000 0.13130 0.06640 -0.29500
N 	N 	0.45670 0.07020 0.13460 -0.30000
N 	N 	0.54510 0.13090 0.93540 -0.29500
N 	N 	0.54320 0.06510 0.86930 -0.28500
N 	N 	0.11840 0.26540 0.98190 -0.28800
N 	N 	0.30320 0.21060 0.97870 -0.28200
N 	N 	0.87850 0.50510 0.75720 -0.28500
N 	N 	0.69410 0.50550 0.70180 -0.28700
N 	N 	0.95000 0.36870 0.93360 -0.29500
N 	N 	0.95670 0.42980 0.86540 -0.30000
N 	N 	0.04510 0.36910 0.06460 -0.29300
N 	N 	0.04320 0.43490 0.13070 -0.28400
N 	N 	0.38160 0.73460 0.48190 -0.28900
N 	N 	0.19680 0.78940 0.47870 -0.28300
N 	N 	0.62150 0.49490 0.25720 -0.28600
N 	N 	0.80590 0.49450 0.20180 -0.28700
N 	N 	0.55000 0.63130 0.43360 -0.29500
N 	N 	0.54330 0.57020 0.36540 -0.30000
N 	N 	0.45490 0.63090 0.56460 -0.29500
N 	N 	0.45680 0.56510 0.63070 -0.28500
N 	N 	0.11840 0.23460 0.48190 -0.28900
N 	N 	0.30320 0.28940 0.47870 -0.28300
N 	N 	0.87850 0.99490 0.25720 -0.28300
N 	N 	0.69410 0.99450 0.20180 -0.28500
N 	N 	0.95000 0.13130 0.43360 -0.29500
N 	N 	0.95670 0.07020 0.36540 -0.30000
N 	N 	0.04510 0.13090 0.56460 -0.29300
N 	N 	0.04320 0.06510 0.63070 -0.28200
N 	N 	0.38160 0.76540 0.98190 -0.29100
N 	N 	0.19680 0.71060 0.97870 -0.28400
N 	N 	0.62150 0.00510 0.75720 -0.28500
N 	N 	0.80590 0.00550 0.70180 -0.28800
N 	N 	0.55000 0.86870 0.93360 -0.29500
N 	N 	0.54330 0.92980 0.86540 -0.30000
N 	N 	0.45490 0.86910 0.06460 -0.29500
N 	N 	0.45680 0.93490 0.13070 -0.28500
N 	N 	0.88160 0.73460 0.01810 -0.28800
N 	N 	0.69680 0.78940 0.02130 -0.28200
N 	N 	0.12150 0.49490 0.24280 -0.28500
N 	N 	0.30590 0.49450 0.29820 -0.28700
N 	N 	0.05000 0.63130 0.06640 -0.29500
N 	N 	0.04330 0.57020 0.13460 -0.30000
N 	N 	0.95490 0.63090 0.93540 -0.29300
N 	N 	0.95680 0.56510 0.86930 -0.28400
N 	N 	0.61840 0.26540 0.51810 -0.28900
N 	N 	0.80320 0.21060 0.52130 -0.28300
N 	N 	0.37850 0.50510 0.74280 -0.28600
N 	N 	0.19410 0.50550 0.79820 -0.28700
N 	N 	0.45000 0.36870 0.56640 -0.29500
N 	N 	0.45670 0.42980 0.63460 -0.30000
N 	N 	0.54510 0.36910 0.43540 -0.29500
N 	N 	0.54320 0.43490 0.36930 -0.28500
