data_crystal

_cell_length_a 11.57130
_cell_length_b 11.73600
_cell_length_c 13.61900
_cell_angle_alpha 92.86900
_cell_angle_beta  114.44300
_cell_angle_gamma 107.98800

_symmetry_space_group_name_	'P 1'
_symmetry_space_group_name_H-M	'P 1'

loop_
_symmetry_equiv_pos_as_xyz
  x,y,z

loop_
_atom_site_label
_atom_site_type_symbol
_atom_site_fract_x
_atom_site_fract_y
_atom_site_fract_z
_atom_site_charge
Zn	Zn	0.10439 0.23392 0.95361 1.11100
Zn	Zn	0.89561 0.76608 0.04639 1.10600
Zn	Zn	-0.00000 0.50000 -0.00000 1.14200
H 	H 	0.67230 0.92930 0.02500 0.03200
H 	H 	0.11950 0.37540 0.57500 -0.01500
H 	H 	0.35120 0.60230 0.43720 0.04300
H 	H 	0.90770 0.57910 0.59440 -0.00000
H 	H 	0.51300 0.36830 0.37770 0.03300
H 	H 	0.51980 0.18980 0.96140 0.08800
H 	H 	0.32770 0.07070 0.97500 -0.05900
H 	H 	0.88050 0.62460 0.42500 0.09400
H 	H 	0.64880 0.39770 0.56280 0.05500
H 	H 	0.09230 0.42090 0.40560 0.09700
H 	H 	0.48700 0.63170 0.62230 0.04800
H 	H 	0.48020 0.81020 0.03860 -0.01200
C 	C 	0.73700 0.15080 0.98420 0.07300
C 	C 	0.02720 0.44220 0.70810 0.14800
C 	C 	0.32910 0.46130 0.26790 0.10200
C 	C 	0.01370 0.47130 0.60140 -0.17000
C 	C 	0.41850 0.48300 0.38720 -0.02400
C 	C 	0.60320 0.95910 0.01460 -0.19400
C 	C 	0.07080 0.42530 0.54500 0.09400
C 	C 	0.41140 0.56100 0.46220 -0.04200
C 	C 	0.94480 0.54640 0.55640 0.14100
C 	C 	0.61460 0.07250 0.99120 0.11500
C 	C 	0.50770 0.42190 0.42700 -0.04000
C 	C 	0.51290 0.11250 0.97710 -0.18400
C 	C 	0.26300 0.84920 0.01580 0.13100
C 	C 	0.97280 0.55780 0.29190 0.06800
C 	C 	0.67090 0.53870 0.73210 0.11000
C 	C 	0.98630 0.52870 0.39860 0.14100
C 	C 	0.58150 0.51700 0.61280 -0.00500
C 	C 	0.39680 0.04090 0.98540 0.12000
C 	C 	0.92920 0.57470 0.45500 -0.18800
C 	C 	0.58860 0.43900 0.53780 -0.05800
C 	C 	0.05520 0.45360 0.44360 -0.23600
C 	C 	0.38540 0.92750 0.00880 -0.15600
C 	C 	0.49230 0.57810 0.57300 -0.05400
C 	C 	0.48710 0.88750 0.02290 0.06400
N 	N 	0.30160 0.36370 0.19550 -0.14100
N 	N 	0.82970 0.11270 0.97220 -0.12400
N 	N 	0.05580 0.35320 0.84240 -0.21400
N 	N 	0.01410 0.51050 0.78100 -0.11400
N 	N 	0.21000 0.37420 0.09980 -0.23300
N 	N 	0.03260 0.45270 0.86450 -0.18200
N 	N 	0.92050 0.21290 0.97050 -0.18100
N 	N 	0.88470 0.30730 0.98070 -0.15200
N 	N 	0.18510 0.47480 0.11420 -0.18900
N 	N 	0.76910 0.27180 0.98930 -0.08900
N 	N 	0.05340 0.34400 0.74330 -0.14000
N 	N 	0.26010 0.53230 0.22020 -0.10700
N 	N 	0.69840 0.63630 0.80450 -0.11900
N 	N 	0.17030 0.88730 0.02780 -0.16100
N 	N 	0.94420 0.64680 0.15760 -0.21000
N 	N 	0.98590 0.48950 0.21900 -0.09000
N 	N 	0.79000 0.62580 0.90020 -0.18800
N 	N 	0.96740 0.54730 0.13550 -0.18500
N 	N 	0.07950 0.78710 0.02950 -0.22400
N 	N 	0.11530 0.69270 0.01930 -0.19300
N 	N 	0.81490 0.52520 0.88580 -0.15200
N 	N 	0.23090 0.72820 0.01070 -0.12000
N 	N 	0.94660 0.65600 0.25670 -0.11600
N 	N 	0.73990 0.46770 0.77980 -0.09500
