data_crystal

_cell_length_a 8.62960
_cell_length_b 9.60800
_cell_length_c 14.49700
_cell_angle_alpha 90.00000
_cell_angle_beta  93.09700
_cell_angle_gamma 90.00000

_symmetry_space_group_name_	'P 1'
_symmetry_space_group_name_H-M	'P 1'

loop_
_symmetry_equiv_pos_as_xyz
  x,y,z

loop_
_atom_site_label
_atom_site_type_symbol
_atom_site_fract_x
_atom_site_fract_y
_atom_site_fract_z
_atom_site_charge
Zn	Zn	0.65674 0.50294 0.67169 1.19300
Zn	Zn	0.84326 0.00294 0.82831 1.19000
Zn	Zn	0.34326 0.49706 0.32831 1.19300
Zn	Zn	0.15674 0.99706 0.17169 1.19000
H 	H 	0.04400 0.04040 0.59140 0.05700
H 	H 	0.16170 0.98520 0.51820 0.06100
H 	H 	0.09770 0.18450 0.42310 0.07000
H 	H 	0.18310 0.22470 0.52010 0.06000
H 	H 	0.71580 0.49580 0.45970 -0.02200
H 	H 	0.93440 0.26680 0.64840 0.00300
H 	H 	0.45030 0.77340 0.45130 0.01300
H 	H 	0.45600 0.54040 0.90860 0.05700
H 	H 	0.33830 0.48520 0.98180 0.06700
H 	H 	0.40230 0.68450 0.07690 0.07100
H 	H 	0.31690 0.72470 0.97990 0.06500
H 	H 	0.78420 0.99580 0.04030 -0.01900
H 	H 	0.56560 0.76680 0.85160 0.00600
H 	H 	0.04970 0.27340 0.04870 0.01400
H 	H 	0.95600 0.95960 0.40860 0.05700
H 	H 	0.83830 0.01480 0.48180 0.06100
H 	H 	0.90230 0.81550 0.57690 0.07000
H 	H 	0.81690 0.77530 0.47990 0.06000
H 	H 	0.28420 0.50420 0.54030 -0.02200
H 	H 	0.06560 0.73320 0.35160 0.00300
H 	H 	0.54970 0.22660 0.54870 0.01300
H 	H 	0.54400 0.45960 0.09140 0.05700
H 	H 	0.66170 0.51480 0.01820 0.06700
H 	H 	0.59770 0.31550 0.92310 0.07100
H 	H 	0.68310 0.27530 0.02010 0.06500
H 	H 	0.21580 0.00420 0.95970 -0.01900
H 	H 	0.43440 0.23320 0.14840 0.00600
H 	H 	0.95030 0.72660 0.95130 0.01400
C 	C 	0.06410 0.03760 0.52480 -0.07600
C 	C 	0.08620 0.18620 0.49070 -0.05700
C 	C 	0.78420 0.42940 0.48850 0.10200
C 	C 	0.90010 0.30790 0.59130 0.09700
C 	C 	0.46950 0.86620 0.47150 0.01000
C 	C 	0.52620 0.88910 0.56110 -0.05600
C 	C 	0.56000 0.02530 0.58970 -0.06100
C 	C 	0.54240 0.76760 0.62660 0.33700
C 	C 	0.63830 0.05600 0.68310 0.32300
C 	C 	0.43590 0.53760 0.97520 -0.08100
C 	C 	0.41380 0.68620 0.00930 -0.06900
C 	C 	0.71580 0.92940 0.01150 0.09700
C 	C 	0.59990 0.80790 0.90870 0.09700
C 	C 	0.03050 0.36620 0.02850 0.01400
C 	C 	0.97380 0.38910 0.93890 -0.06000
C 	C 	0.94000 0.52530 0.91030 -0.06200
C 	C 	0.95760 0.26760 0.87340 0.33100
C 	C 	0.86170 0.55600 0.81690 0.33100
C 	C 	0.93590 0.96240 0.47520 -0.07600
C 	C 	0.91380 0.81380 0.50930 -0.05700
C 	C 	0.21580 0.57060 0.51150 0.10200
C 	C 	0.09990 0.69210 0.40870 0.09700
C 	C 	0.53050 0.13380 0.52850 0.01000
C 	C 	0.47380 0.11090 0.43890 -0.05600
C 	C 	0.44000 0.97470 0.41030 -0.06100
C 	C 	0.45760 0.23240 0.37340 0.33700
C 	C 	0.36170 0.94400 0.31690 0.32300
C 	C 	0.56410 0.46240 0.02480 -0.08100
C 	C 	0.58620 0.31380 0.99070 -0.06900
C 	C 	0.28420 0.07060 0.98850 0.09700
C 	C 	0.40010 0.19210 0.09130 0.09700
C 	C 	0.96950 0.63380 0.97150 0.01400
C 	C 	0.02620 0.61090 0.06110 -0.06000
C 	C 	0.06000 0.47470 0.08970 -0.06200
C 	C 	0.04240 0.73240 0.12660 0.33100
C 	C 	0.13830 0.44400 0.18310 0.33100
N 	N 	0.95520 0.27860 0.51110 -0.09400
N 	N 	0.88060 0.35560 0.44290 -0.09500
N 	N 	0.78940 0.40370 0.58100 -0.27400
N 	N 	0.54480 0.77860 0.98890 -0.08800
N 	N 	0.61940 0.85560 0.05710 -0.09500
N 	N 	0.71060 0.90370 0.91900 -0.26900
N 	N 	0.04480 0.72140 0.48890 -0.09400
N 	N 	0.11940 0.64440 0.55710 -0.09500
N 	N 	0.21060 0.59630 0.41900 -0.27400
N 	N 	0.45520 0.22140 0.01110 -0.08800
N 	N 	0.38060 0.14440 0.94290 -0.09500
N 	N 	0.28940 0.09630 0.08100 -0.26900
O 	O 	0.60580 0.66080 0.59290 -0.48100
O 	O 	0.49300 0.77520 0.70460 -0.31200
O 	O 	0.75810 0.98240 0.70320 -0.46300
O 	O 	0.59100 0.14930 0.73330 -0.33400
O 	O 	0.89420 0.16080 0.90710 -0.48500
O 	O 	0.00700 0.27520 0.79540 -0.30700
O 	O 	0.74190 0.48240 0.79680 -0.47100
O 	O 	0.90900 0.64930 0.76670 -0.33500
O 	O 	0.39420 0.33920 0.40710 -0.48100
O 	O 	0.50700 0.22480 0.29540 -0.31200
O 	O 	0.24190 0.01760 0.29680 -0.46300
O 	O 	0.40900 0.85070 0.26670 -0.33400
O 	O 	0.10580 0.83920 0.09290 -0.48500
O 	O 	0.99300 0.72480 0.20460 -0.30700
O 	O 	0.25810 0.51760 0.20320 -0.47100
O 	O 	0.09100 0.35070 0.23330 -0.33500
