data_crystal

_cell_length_a 9.57000
_cell_length_b 11.64890
_cell_length_c 11.64890
_cell_angle_alpha 80.28600
_cell_angle_beta  65.74680
_cell_angle_gamma 65.74690

_symmetry_space_group_name_	'P 1'
_symmetry_space_group_name_H-M	'P 1'

loop_
_symmetry_equiv_pos_as_xyz
  x,y,z

loop_
_atom_site_label
_atom_site_type_symbol
_atom_site_fract_x
_atom_site_fract_y
_atom_site_fract_z
_atom_site_charge
Zn	Zn	0.30292 0.47529 0.83255 1.12900
Zn	Zn	0.61076 0.52471 0.16745 1.12500
Zn	Zn	0.86453 0.83255 0.52471 1.11700
Zn	Zn	0.22179 0.16745 0.47529 1.13000
H 	H 	0.99760 0.43390 0.05050 -0.07500
H 	H 	0.59190 0.82020 0.76920 -0.04800
H 	H 	0.07810 0.66370 0.65930 -0.01300
H 	H 	0.48200 0.56610 0.94950 -0.07500
H 	H 	0.18130 0.17980 0.23080 -0.04200
H 	H 	0.40110 0.33630 0.34070 -0.05800
H 	H 	0.95190 0.05050 0.56610 -0.11000
H 	H 	0.63890 0.76920 0.17980 -0.05300
H 	H 	0.26260 0.65930 0.33630 -0.05300
H 	H 	0.56850 0.94950 0.43390 -0.08800
H 	H 	0.58790 0.23080 0.82020 -0.05000
H 	H 	0.25820 0.34070 0.66370 -0.05100
C 	C 	0.95810 0.49140 0.99440 0.02400
C 	C 	0.79010 0.62670 0.91550 0.08900
C 	C 	0.68300 0.76340 0.78660 0.05900
C 	C 	0.97320 0.67270 0.71870 -0.10400
C 	C 	0.95180 0.60730 0.83350 -0.04500
C 	C 	0.44390 0.50860 0.00560 0.06400
C 	C 	0.33230 0.37330 0.08450 0.09500
C 	C 	0.23300 0.23660 0.21340 0.06600
C 	C 	0.36460 0.32730 0.28130 -0.03600
C 	C 	0.39260 0.39270 0.16650 -0.03400
C 	C 	0.04750 0.99440 0.50860 0.11100
C 	C 	0.29440 0.91550 0.37330 0.08600
C 	C 	0.53040 0.78660 0.23660 0.06300
C 	C 	0.30810 0.71870 0.32730 -0.03900
C 	C 	0.21470 0.83350 0.39270 -0.03000
C 	C 	0.55050 0.00560 0.49140 0.08200
C 	C 	0.58320 0.08450 0.62670 0.09600
C 	C 	0.55360 0.21340 0.76340 0.06300
C 	C 	0.35410 0.28130 0.67270 -0.03800
C 	C 	0.44090 0.16650 0.60730 -0.03300
N 	N 	0.05880 0.52230 0.88430 -0.26900
N 	N 	0.79760 0.54990 0.01610 -0.31500
N 	N 	0.65410 0.70300 0.89540 -0.17800
N 	N 	0.83580 0.74880 0.69840 -0.28600
N 	N 	0.46540 0.47770 0.11570 -0.30100
N 	N 	0.36360 0.45010 0.98390 -0.31700
N 	N 	0.25250 0.29700 0.10460 -0.17400
N 	N 	0.28300 0.25120 0.30160 -0.28900
N 	N 	0.05690 0.88430 0.47770 -0.29900
N 	N 	0.18630 0.01610 0.45010 -0.31800
N 	N 	0.45050 0.89540 0.29700 -0.18000
N 	N 	0.46580 0.69840 0.25120 -0.29200
N 	N 	0.41890 0.11570 0.52230 -0.30300
N 	N 	0.65250 0.98390 0.54990 -0.33200
N 	N 	0.64290 0.10460 0.70300 -0.18000
N 	N 	0.41540 0.30160 0.74880 -0.29100
