data_crystal

_cell_length_a 6.31080
_cell_length_b 12.63900
_cell_length_c 15.63100
_cell_angle_alpha 95.72300
_cell_angle_beta  99.87800
_cell_angle_gamma 97.86000

_symmetry_space_group_name_	'P 1'
_symmetry_space_group_name_H-M	'P 1'

loop_
_symmetry_equiv_pos_as_xyz
  x,y,z

loop_
_atom_site_label
_atom_site_type_symbol
_atom_site_fract_x
_atom_site_fract_y
_atom_site_fract_z
_atom_site_charge
Zn	Zn	0.47996 0.04582 0.89945 1.21700
Zn	Zn	0.94143 0.03806 0.81373 1.20400
Zn	Zn	0.52004 0.95418 0.10055 1.24100
Zn	Zn	0.05857 0.96194 0.18627 1.23300
Zn	Zn	-0.00000 0.00000 -0.00000 1.16400
H 	H 	0.81630 0.26990 0.64420 0.15800
H 	H 	0.42290 0.48680 0.58880 0.20500
H 	H 	0.35610 0.31710 0.78820 0.15100
H 	H 	0.53230 0.57660 0.79580 0.15900
H 	H 	0.54430 0.72900 0.89190 -0.00300
H 	H 	0.89460 0.69390 0.84190 0.01500
H 	H 	0.88120 0.54200 0.74510 0.19500
H 	H 	0.45070 0.25280 0.45770 0.17100
H 	H 	0.47780 0.12850 0.34390 -0.06300
H 	H 	0.10390 0.25450 0.36450 -0.08500
H 	H 	0.06750 0.38390 0.47330 0.16000
H 	H 	0.18370 0.73010 0.35580 0.15200
H 	H 	0.57710 0.51320 0.41120 0.20300
H 	H 	0.64390 0.68290 0.21180 0.14400
H 	H 	0.46770 0.42340 0.20420 0.14900
H 	H 	0.45570 0.27100 0.10810 -0.03200
H 	H 	0.10540 0.30610 0.15810 -0.06800
H 	H 	0.11880 0.45800 0.25490 0.12500
H 	H 	0.54930 0.74720 0.54230 0.17800
H 	H 	0.52220 0.87150 0.65610 -0.03100
H 	H 	0.89610 0.74550 0.63550 -0.00200
H 	H 	0.93250 0.61610 0.52670 0.22400
C 	C 	0.66940 0.19568 0.77999 0.32600
C 	C 	0.59780 0.27978 0.72433 0.10300
C 	C 	0.70160 0.30447 0.65588 -0.28700
C 	C 	0.63280 0.38064 0.60560 0.35900
C 	C 	0.46610 0.43428 0.62260 -0.42400
C 	C 	0.36490 0.40870 0.69037 0.35900
C 	C 	0.42630 0.33292 0.74225 -0.29300
C 	C 	0.20630 0.54458 0.76105 0.36700
C 	C 	0.40380 0.60027 0.80483 -0.33200
C 	C 	0.41040 0.69154 0.86234 0.20500
C 	C 	0.22050 0.72815 0.87672 -0.21800
C 	C 	0.02340 0.67075 0.83253 0.16400
C 	C 	0.01490 0.57970 0.77476 -0.35900
C 	C 	0.22510 0.82723 0.93664 0.41100
C 	C 	0.75590 0.32948 0.47562 0.38100
C 	C 	0.58170 0.25370 0.43795 -0.39900
C 	C 	0.59880 0.17850 0.37087 0.27900
C 	C 	0.79560 0.17665 0.34299 -0.32300
C 	C 	0.97080 0.25430 0.38241 0.31400
C 	C 	0.94990 0.33110 0.44794 -0.35100
C 	C 	0.81750 0.09368 0.27158 0.52000
C 	C 	0.33060 0.80432 0.22001 0.33400
C 	C 	0.40220 0.72022 0.27567 0.09700
C 	C 	0.29840 0.69553 0.34412 -0.28200
C 	C 	0.36720 0.61936 0.39440 0.35600
C 	C 	0.53390 0.56572 0.37740 -0.41500
C 	C 	0.63510 0.59130 0.30963 0.35300
C 	C 	0.57370 0.66708 0.25775 -0.28100
C 	C 	0.79370 0.45542 0.23895 0.33800
C 	C 	0.59620 0.39973 0.19517 -0.34000
C 	C 	0.58960 0.30846 0.13766 0.21800
C 	C 	0.77950 0.27185 0.12328 -0.27300
C 	C 	0.97660 0.32925 0.16747 0.25800
C 	C 	0.98510 0.42030 0.22524 -0.28400
C 	C 	0.77490 0.17277 0.06336 0.43500
C 	C 	0.24410 0.67052 0.52438 0.39400
C 	C 	0.41830 0.74630 0.56205 -0.37900
C 	C 	0.40120 0.82150 0.62913 0.24300
C 	C 	0.20440 0.82335 0.65701 -0.24400
C 	C 	0.02920 0.74570 0.61759 0.19600
C 	C 	0.05010 0.66890 0.55206 -0.41100
C 	C 	0.18250 0.90632 0.72842 0.41000
O 	O 	0.74990 0.98124 0.89217 -0.55300
O 	O 	0.18610 0.08209 0.91391 -0.63400
O 	O 	0.57970 0.18061 0.84367 -0.44700
O 	O 	0.81740 0.14819 0.75734 -0.49100
O 	O 	0.18190 0.45429 0.70266 -0.34700
O 	O 	0.04820 0.84941 0.95237 -0.44000
O 	O 	0.40900 0.88502 0.96788 -0.46900
O 	O 	0.73970 0.41092 0.53903 -0.34000
O 	O 	0.64720 0.04594 0.22278 -0.52600
O 	O 	0.00720 0.07790 0.26538 -0.56500
O 	O 	0.25010 0.01876 0.10783 -0.68800
O 	O 	0.81390 0.91791 0.08609 -0.61200
O 	O 	0.42030 0.81939 0.15633 -0.46000
O 	O 	0.18260 0.85181 0.24266 -0.47900
O 	O 	0.81810 0.54571 0.29734 -0.32000
O 	O 	0.95180 0.15059 0.04763 -0.49100
O 	O 	0.59100 0.11498 0.03212 -0.58200
O 	O 	0.26030 0.58908 0.46097 -0.35500
O 	O 	0.35280 0.95406 0.77722 -0.44800
O 	O 	0.99280 0.92210 0.73462 -0.44200
