data_crystal

_cell_length_a 9.75800
_cell_length_b 11.89000
_cell_length_c 15.22000
_cell_angle_alpha 95.54400
_cell_angle_beta  99.06800
_cell_angle_gamma 112.87400

_symmetry_space_group_name_	'P 1'
_symmetry_space_group_name_H-M	'P 1'

loop_
_symmetry_equiv_pos_as_xyz
  x,y,z

loop_
_atom_site_label
_atom_site_type_symbol
_atom_site_fract_x
_atom_site_fract_y
_atom_site_fract_z
_atom_site_charge
Zn	Zn	0.00986 0.92810 0.20549 1.20200
Zn	Zn	0.55713 0.89077 0.43142 1.18900
Zn	Zn	0.10884 0.81187 0.83079 1.20500
Zn	Zn	0.99014 0.07190 0.79451 1.18000
Zn	Zn	0.44287 0.10923 0.56858 1.18300
Zn	Zn	0.89116 0.18813 0.16921 1.19000
Zn	Zn	0.50000 0.00000 -0.00000 1.12900
H 	H 	0.31630 0.03380 0.14350 -0.07500
H 	H 	0.92700 0.82330 0.98710 0.04200
H 	H 	0.82260 0.86340 0.35580 -0.02100
H 	H 	0.65050 0.09620 0.29700 -0.03400
H 	H 	0.27680 0.83520 0.27200 -0.04100
H 	H 	0.18010 0.07830 0.40460 -0.01400
H 	H 	0.80230 0.51040 0.16550 0.02900
H 	H 	0.45610 0.61120 0.10030 0.00900
H 	H 	0.28400 0.40530 0.07530 0.06700
H 	H 	0.37510 0.25040 0.08540 0.01000
H 	H 	0.30730 0.49480 0.32400 0.04100
H 	H 	0.72330 0.53830 0.44450 0.02600
H 	H 	0.66540 0.33440 0.39150 0.05800
H 	H 	0.43050 0.21110 0.30130 0.01200
H 	H 	0.68370 0.96620 0.85650 0.04100
H 	H 	0.07300 0.17670 0.01290 -0.08100
H 	H 	0.17740 0.13660 0.64420 -0.01900
H 	H 	0.34950 0.90380 0.70300 -0.05000
H 	H 	0.72320 0.16480 0.72800 -0.04300
H 	H 	0.81990 0.92170 0.59540 -0.03600
H 	H 	0.19770 0.48960 0.83450 0.04600
H 	H 	0.54390 0.38880 0.89970 0.02500
H 	H 	0.71600 0.59470 0.92470 0.07200
H 	H 	0.62490 0.74960 0.91460 0.03400
H 	H 	0.69270 0.50520 0.67600 0.03900
H 	H 	0.27670 0.46170 0.55550 0.03100
H 	H 	0.33460 0.66560 0.60850 0.06500
H 	H 	0.56950 0.78890 0.69870 0.02000
C 	C 	0.24240 0.98450 0.09300 0.16600
C 	C 	0.03070 0.87040 0.00860 -0.01400
C 	C 	0.80320 0.92530 0.33050 0.10700
C 	C 	0.71040 0.05150 0.29860 0.04300
C 	C 	0.27990 0.89550 0.31690 0.12500
C 	C 	0.22730 0.02700 0.38910 0.06700
C 	C 	0.65690 0.26750 0.13560 0.39300
C 	C 	0.75990 0.71370 0.14790 0.32600
C 	C 	0.59870 0.36650 0.12680 -0.15900
C 	C 	0.69900 0.48940 0.14530 0.07000
C 	C 	0.64870 0.58260 0.13430 -0.13200
C 	C 	0.49130 0.54960 0.10740 0.04900
C 	C 	0.38800 0.42630 0.09110 -0.12200
C 	C 	0.44270 0.33350 0.09880 0.05700
C 	C 	0.18920 0.25880 0.24620 0.38300
C 	C 	0.56670 0.67350 0.41710 0.32900
C 	C 	0.34360 0.34120 0.30340 -0.13100
C 	C 	0.38010 0.46290 0.33600 0.06400
C 	C 	0.52390 0.53940 0.38680 -0.11500
C 	C 	0.62810 0.48870 0.40820 0.05100
C 	C 	0.59380 0.36700 0.37690 -0.11900
C 	C 	0.45330 0.29330 0.32390 0.05200
C 	C 	0.75760 0.01550 0.90700 0.00100
C 	C 	0.96930 0.12960 0.99140 0.19300
C 	C 	0.19680 0.07470 0.66950 0.09400
C 	C 	0.28960 0.94850 0.70140 0.14800
C 	C 	0.72010 0.10450 0.68310 0.10200
C 	C 	0.77270 0.97300 0.61090 0.16200
C 	C 	0.34310 0.73250 0.86440 0.38600
C 	C 	0.24010 0.28630 0.85210 0.32400
C 	C 	0.40130 0.63350 0.87320 -0.12800
C 	C 	0.30100 0.51060 0.85470 0.06000
C 	C 	0.35130 0.41740 0.86570 -0.10500
C 	C 	0.50870 0.45040 0.89260 0.04400
C 	C 	0.61200 0.57370 0.90890 -0.09200
C 	C 	0.55730 0.66650 0.90120 0.04800
C 	C 	0.81080 0.74120 0.75380 0.37700
C 	C 	0.43330 0.32650 0.58290 0.33000
C 	C 	0.65640 0.65880 0.69660 -0.12700
C 	C 	0.61990 0.53710 0.66400 0.06200
C 	C 	0.47610 0.46060 0.61320 -0.11500
C 	C 	0.37190 0.51130 0.59180 0.05000
C 	C 	0.40620 0.63300 0.62310 -0.11600
C 	C 	0.54670 0.70670 0.67610 0.04800
N 	N 	0.27460 0.96100 0.01420 -0.27100
N 	N 	0.13410 0.88540 0.95850 -0.20600
N 	N 	0.09290 0.93080 0.09380 -0.27000
N 	N 	0.87770 0.98520 0.27150 -0.22500
N 	N 	0.81600 0.06780 0.25140 -0.27900
N 	N 	0.69820 0.96320 0.34960 -0.26500
N 	N 	0.38190 0.93810 0.39390 -0.24600
N 	N 	0.34570 0.02380 0.44190 -0.27800
N 	N 	0.18220 0.94840 0.31060 -0.24800
N 	N 	0.72540 0.03900 0.98580 -0.21200
N 	N 	0.86590 0.11460 0.04150 -0.32600
N 	N 	0.90710 0.06920 0.90620 -0.29100
N 	N 	0.12230 0.01480 0.72850 -0.25500
N 	N 	0.18400 0.93220 0.74860 -0.25100
N 	N 	0.30180 0.03680 0.65040 -0.31400
N 	N 	0.61810 0.06190 0.60610 -0.28400
N 	N 	0.65430 0.97620 0.55810 -0.25600
N 	N 	0.81780 0.05160 0.68940 -0.30600
O 	O 	0.57240 0.15630 0.11120 -0.52700
O 	O 	0.80020 0.30750 0.16760 -0.49000
O 	O 	0.89180 0.74320 0.19690 -0.44400
O 	O 	0.72790 0.79130 0.10850 -0.36700
O 	O 	0.15730 0.15030 0.21740 -0.46200
O 	O 	0.09590 0.30950 0.22740 -0.45700
O 	O 	0.46070 0.71170 0.39470 -0.46100
O 	O 	0.69380 0.74420 0.46030 -0.34500
O 	O 	0.42760 0.84370 0.88880 -0.48200
O 	O 	0.19980 0.69250 0.83240 -0.46600
O 	O 	0.10820 0.25680 0.80310 -0.42200
O 	O 	0.27210 0.20870 0.89150 -0.34300
O 	O 	0.84270 0.84970 0.78260 -0.43700
O 	O 	0.90410 0.69050 0.77260 -0.46700
O 	O 	0.53930 0.28830 0.60530 -0.46700
O 	O 	0.30620 0.25580 0.53970 -0.34700
