data_crystal

_cell_length_a 15.57800
_cell_length_b 15.57800
_cell_length_c 16.52100
_cell_angle_alpha 90.00000
_cell_angle_beta  90.00000
_cell_angle_gamma 120.00000

_symmetry_space_group_name_	'P 1'
_symmetry_space_group_name_H-M	'P 1'

loop_
_symmetry_equiv_pos_as_xyz
  x,y,z

loop_
_atom_site_label
_atom_site_type_symbol
_atom_site_fract_x
_atom_site_fract_y
_atom_site_fract_z
_atom_site_charge
Zn	Zn	0.25908 0.51816 0.75000 1.23100
Zn	Zn	0.25908 0.74092 0.75000 1.23100
Zn	Zn	0.48184 0.74092 0.75000 1.23100
Zn	Zn	0.74092 0.48184 0.25000 1.23100
Zn	Zn	0.74092 0.25908 0.25000 1.23100
Zn	Zn	0.51816 0.25908 0.25000 1.23100
H 	H 	0.69200 0.45390 0.47800 0.07000
H 	H 	0.76640 0.48160 0.60240 0.04300
H 	H 	0.71060 0.54110 0.71150 0.03600
H 	H 	0.57760 0.56430 0.69500 0.06200
H 	H 	0.76190 0.30800 0.47800 0.07100
H 	H 	0.71520 0.23360 0.60240 0.04400
H 	H 	0.83050 0.28940 0.71150 0.03700
H 	H 	0.98670 0.42240 0.69500 0.06300
H 	H 	0.54610 0.23810 0.47800 0.07100
H 	H 	0.51840 0.28480 0.60240 0.04400
H 	H 	0.45890 0.16950 0.71150 0.03700
H 	H 	0.43570 0.01330 0.69500 0.06300
H 	H 	0.76190 0.45390 0.02200 0.07100
H 	H 	0.71520 0.48160 0.89760 0.04400
H 	H 	0.83050 0.54110 0.78850 0.03700
H 	H 	0.98670 0.56430 0.80500 0.06300
H 	H 	0.54610 0.30800 0.02200 0.07100
H 	H 	0.51840 0.23360 0.89760 0.04400
H 	H 	0.45890 0.28940 0.78850 0.03700
H 	H 	0.43570 0.42240 0.80500 0.06300
H 	H 	0.69200 0.23810 0.02200 0.07100
H 	H 	0.76640 0.28480 0.89760 0.04400
H 	H 	0.71060 0.16950 0.78850 0.03700
H 	H 	0.57760 0.01330 0.80500 0.06300
H 	H 	0.30800 0.54610 0.52200 0.07100
H 	H 	0.23360 0.51840 0.39760 0.04400
H 	H 	0.28940 0.45890 0.28850 0.03700
H 	H 	0.42240 0.43570 0.30500 0.06300
H 	H 	0.23810 0.69200 0.52200 0.07100
H 	H 	0.28480 0.76640 0.39760 0.04400
H 	H 	0.16950 0.71060 0.28850 0.03700
H 	H 	0.01330 0.57760 0.30500 0.06300
H 	H 	0.45390 0.76190 0.52200 0.07100
H 	H 	0.48160 0.71520 0.39760 0.04400
H 	H 	0.54110 0.83050 0.28850 0.03700
H 	H 	0.56430 0.98670 0.30500 0.06300
H 	H 	0.23810 0.54610 0.97800 0.07100
H 	H 	0.28480 0.51840 0.10240 0.04400
H 	H 	0.16950 0.45890 0.21150 0.03700
H 	H 	0.01330 0.43570 0.19500 0.06300
H 	H 	0.45390 0.69200 0.97800 0.07100
H 	H 	0.48160 0.76640 0.10240 0.04400
H 	H 	0.54110 0.71060 0.21150 0.03700
H 	H 	0.56430 0.57760 0.19500 0.06300
H 	H 	0.30800 0.76190 0.97800 0.07100
H 	H 	0.23360 0.71520 0.10240 0.04400
H 	H 	0.28940 0.83050 0.21150 0.03700
H 	H 	0.42240 0.98670 0.19500 0.06300
C 	C 	0.43350 0.57270 0.63462 0.38800
C 	C 	0.46690 0.53480 0.56469 -0.12200
C 	C 	0.54910 0.52170 0.57547 0.05000
C 	C 	0.58240 0.48590 0.50944 0.05100
C 	C 	0.66700 0.47450 0.52183 -0.07900
C 	C 	0.71200 0.49230 0.59480 -0.02600
C 	C 	0.67790 0.52740 0.66070 -0.02400
C 	C 	0.59950 0.54120 0.65070 -0.07900
C 	C 	0.13920 0.56650 0.63462 0.38800
C 	C 	0.06790 0.53310 0.56469 -0.12200
C 	C 	0.97260 0.45090 0.57547 0.05000
C 	C 	0.90350 0.41760 0.50944 0.05100
C 	C 	0.80750 0.33300 0.52183 -0.07900
C 	C 	0.78030 0.28800 0.59480 -0.02600
C 	C 	0.84950 0.32210 0.66070 -0.02500
C 	C 	0.94170 0.40050 0.65070 -0.07900
C 	C 	0.42730 0.86080 0.63462 0.38800
C 	C 	0.46520 0.93210 0.56469 -0.12200
C 	C 	0.47830 0.02740 0.57547 0.05000
C 	C 	0.51410 0.09650 0.50944 0.05100
C 	C 	0.52550 0.19250 0.52183 -0.07900
C 	C 	0.50770 0.21970 0.59480 -0.02600
C 	C 	0.47260 0.15050 0.66070 -0.02500
C 	C 	0.45880 0.05830 0.65070 -0.07900
C 	C 	0.13920 0.57270 0.86538 0.38800
C 	C 	0.06790 0.53480 0.93531 -0.12200
C 	C 	0.97260 0.52170 0.92453 0.04900
C 	C 	0.90350 0.48590 0.99056 0.05100
C 	C 	0.80750 0.47450 0.97817 -0.07900
C 	C 	0.78030 0.49230 0.90520 -0.02500
C 	C 	0.84950 0.52740 0.83930 -0.02500
C 	C 	0.94170 0.54120 0.84930 -0.07800
C 	C 	0.42730 0.56650 0.86538 0.38800
C 	C 	0.46520 0.53310 0.93531 -0.12200
C 	C 	0.47830 0.45090 0.92453 0.05000
C 	C 	0.51410 0.41760 0.99056 0.05100
C 	C 	0.52550 0.33300 0.97817 -0.07900
C 	C 	0.50770 0.28800 0.90520 -0.02500
C 	C 	0.47260 0.32210 0.83930 -0.02500
C 	C 	0.45880 0.40050 0.84930 -0.07900
C 	C 	0.43350 0.86080 0.86538 0.38800
C 	C 	0.46690 0.93210 0.93531 -0.12200
C 	C 	0.54910 0.02740 0.92453 0.04900
C 	C 	0.58240 0.09650 0.99056 0.05100
C 	C 	0.66700 0.19250 0.97817 -0.07900
C 	C 	0.71200 0.21970 0.90520 -0.02500
C 	C 	0.67790 0.15050 0.83930 -0.02500
C 	C 	0.59950 0.05830 0.84930 -0.07800
C 	C 	0.56650 0.42730 0.36538 0.38800
C 	C 	0.53310 0.46520 0.43531 -0.12200
C 	C 	0.45090 0.47830 0.42453 0.05000
C 	C 	0.41760 0.51410 0.49056 0.05100
C 	C 	0.33300 0.52550 0.47817 -0.07900
C 	C 	0.28800 0.50770 0.40520 -0.02600
C 	C 	0.32210 0.47260 0.33930 -0.02400
C 	C 	0.40050 0.45880 0.34930 -0.07900
C 	C 	0.86080 0.43350 0.36538 0.38800
C 	C 	0.93210 0.46690 0.43531 -0.12200
C 	C 	0.02740 0.54910 0.42453 0.05000
C 	C 	0.09650 0.58240 0.49056 0.05100
C 	C 	0.19250 0.66700 0.47817 -0.07900
C 	C 	0.21970 0.71200 0.40520 -0.02600
C 	C 	0.15050 0.67790 0.33930 -0.02500
C 	C 	0.05830 0.59950 0.34930 -0.07900
C 	C 	0.57270 0.13920 0.36538 0.38800
C 	C 	0.53480 0.06790 0.43531 -0.12200
C 	C 	0.52170 0.97260 0.42453 0.05000
C 	C 	0.48590 0.90350 0.49056 0.05100
C 	C 	0.47450 0.80750 0.47817 -0.07900
C 	C 	0.49230 0.78030 0.40520 -0.02600
C 	C 	0.52740 0.84950 0.33930 -0.02500
C 	C 	0.54120 0.94170 0.34930 -0.07900
C 	C 	0.86080 0.42730 0.13462 0.38800
C 	C 	0.93210 0.46520 0.06469 -0.12200
C 	C 	0.02740 0.47830 0.07547 0.04900
C 	C 	0.09650 0.51410 0.00944 0.05100
C 	C 	0.19250 0.52550 0.02183 -0.07900
C 	C 	0.21970 0.50770 0.09480 -0.02500
C 	C 	0.15050 0.47260 0.16070 -0.02500
C 	C 	0.05830 0.45880 0.15070 -0.07800
C 	C 	0.57270 0.43350 0.13462 0.38800
C 	C 	0.53480 0.46690 0.06469 -0.12200
C 	C 	0.52170 0.54910 0.07547 0.05000
C 	C 	0.48590 0.58240 0.00944 0.05100
C 	C 	0.47450 0.66700 0.02183 -0.07900
C 	C 	0.49230 0.71200 0.09480 -0.02500
C 	C 	0.52740 0.67790 0.16070 -0.02500
C 	C 	0.54120 0.59950 0.15070 -0.07900
C 	C 	0.56650 0.13920 0.13462 0.38800
C 	C 	0.53310 0.06790 0.06469 -0.12200
C 	C 	0.45090 0.97260 0.07547 0.04900
C 	C 	0.41760 0.90350 0.00944 0.05100
C 	C 	0.33300 0.80750 0.02183 -0.07900
C 	C 	0.28800 0.78030 0.09480 -0.02500
C 	C 	0.32210 0.84950 0.16070 -0.02500
C 	C 	0.40050 0.94170 0.15070 -0.07800
O 	O 	0.36017 0.50769 0.67465 -0.44100
O 	O 	0.48135 0.66442 0.64734 -0.44300
O 	O 	0.14752 0.63983 0.67465 -0.44100
O 	O 	0.18307 0.51865 0.64734 -0.44300
O 	O 	0.49231 0.85248 0.67465 -0.44100
O 	O 	0.33558 0.81693 0.64734 -0.44300
O 	O 	0.14752 0.50769 0.82535 -0.44100
O 	O 	0.18307 0.66442 0.85266 -0.44300
O 	O 	0.49231 0.63983 0.82535 -0.44100
O 	O 	0.33558 0.51865 0.85266 -0.44300
O 	O 	0.36017 0.85248 0.82535 -0.44100
O 	O 	0.48135 0.81693 0.85266 -0.44300
O 	O 	0.63983 0.49231 0.32535 -0.44100
O 	O 	0.51865 0.33558 0.35266 -0.44300
O 	O 	0.85248 0.36017 0.32535 -0.44100
O 	O 	0.81693 0.48135 0.35266 -0.44300
O 	O 	0.50769 0.14752 0.32535 -0.44100
O 	O 	0.66442 0.18307 0.35266 -0.44300
O 	O 	0.85248 0.49231 0.17465 -0.44100
O 	O 	0.81693 0.33558 0.14734 -0.44300
O 	O 	0.50769 0.36017 0.17465 -0.44100
O 	O 	0.66442 0.48135 0.14734 -0.44300
O 	O 	0.63983 0.14752 0.17465 -0.44100
O 	O 	0.51865 0.18307 0.14734 -0.44300
O 	O 	0.33333 0.66666 0.75000 -0.62900
O 	O 	0.66667 0.33334 0.25000 -0.62900
