data_crystal

_cell_length_a 6.27700
_cell_length_b 17.70200
_cell_length_c 20.48600
_cell_angle_alpha 90.00000
_cell_angle_beta  97.56500
_cell_angle_gamma 90.00000

_symmetry_space_group_name_	'P 1'
_symmetry_space_group_name_H-M	'P 1'

loop_
_symmetry_equiv_pos_as_xyz
  x,y,z

loop_
_atom_site_label
_atom_site_type_symbol
_atom_site_fract_x
_atom_site_fract_y
_atom_site_fract_z
_atom_site_charge
Zn	Zn	0.18960 0.51275 0.77638 1.21100
Zn	Zn	0.31040 0.01275 0.72362 1.21100
Zn	Zn	0.81040 0.48725 0.22362 1.21100
Zn	Zn	0.68960 0.98725 0.27638 1.21100
H 	H 	0.01740 0.79100 0.59340 0.07200
H 	H 	0.23350 0.75690 0.51590 0.03500
H 	H 	0.56410 0.70470 0.54720 0.03200
H 	H 	0.68300 0.68700 0.65730 0.07300
H 	H 	0.65690 0.70700 0.76970 0.16200
H 	H 	0.46870 0.75590 0.79070 0.17100
H 	H 	0.09090 0.75350 0.76000 0.16700
H 	H 	0.93290 0.79060 0.70340 0.16300
H 	H 	0.73550 0.47530 0.72320 -0.02900
H 	H 	0.50900 0.47690 0.62750 0.11800
H 	H 	0.96450 0.58380 0.54300 0.09800
H 	H 	0.17890 0.57970 0.64180 -0.01300
H 	H 	0.65310 0.53990 0.47350 0.08000
H 	H 	0.47120 0.57530 0.50880 0.08100
H 	H 	0.01750 0.39690 0.86290 -0.01800
H 	H 	0.81300 0.38770 0.94590 0.09900
H 	H 	0.70040 0.60840 0.93130 0.10400
H 	H 	0.91850 0.61550 0.85070 -0.02200
H 	H 	0.66090 0.52890 0.03940 0.07500
H 	H 	0.61900 0.44340 0.02470 0.07600
H 	H 	0.48260 0.29100 0.90660 0.08300
H 	H 	0.26650 0.25690 0.98410 0.01700
H 	H 	0.93590 0.20470 0.95280 0.05400
H 	H 	0.81700 0.18700 0.84270 0.05300
H 	H 	0.84310 0.20700 0.73030 0.14700
H 	H 	0.03130 0.25590 0.70930 0.15300
H 	H 	0.40910 0.25350 0.74000 0.17200
H 	H 	0.56710 0.29060 0.79660 0.16700
H 	H 	0.76450 0.97530 0.77680 -0.03100
H 	H 	0.99100 0.97690 0.87250 0.11800
H 	H 	0.53550 0.08380 0.95700 0.10000
H 	H 	0.32110 0.07970 0.85820 -0.01600
H 	H 	0.84690 0.03990 0.02650 0.07900
H 	H 	0.02880 0.07530 0.99120 0.07700
H 	H 	0.48250 0.89690 0.63710 -0.01200
H 	H 	0.68700 0.88770 0.55410 0.09700
H 	H 	0.79960 0.10840 0.56870 0.10300
H 	H 	0.58150 0.11550 0.64930 -0.02200
H 	H 	0.83910 0.02890 0.46060 0.07600
H 	H 	0.88100 0.94340 0.47530 0.07600
H 	H 	0.98260 0.20900 0.40660 0.07100
H 	H 	0.76650 0.24310 0.48410 0.03400
H 	H 	0.43590 0.29530 0.45280 0.03100
H 	H 	0.31700 0.31300 0.34270 0.07200
H 	H 	0.34310 0.29300 0.23030 0.16100
H 	H 	0.53130 0.24410 0.20930 0.17000
H 	H 	0.90910 0.24650 0.24000 0.16600
H 	H 	0.06710 0.20940 0.29660 0.16200
H 	H 	0.26450 0.52470 0.27680 -0.03000
H 	H 	0.49100 0.52310 0.37250 0.11700
H 	H 	0.03550 0.41620 0.45700 0.09800
H 	H 	0.82110 0.42030 0.35820 -0.01300
H 	H 	0.34690 0.46010 0.52650 0.08000
H 	H 	0.52880 0.42470 0.49120 0.08100
H 	H 	0.98250 0.60310 0.13710 -0.01800
H 	H 	0.18700 0.61230 0.05410 0.09900
H 	H 	0.29960 0.39160 0.06870 0.10400
H 	H 	0.08150 0.38450 0.14930 -0.02200
H 	H 	0.33910 0.47110 0.96060 0.07500
H 	H 	0.38100 0.55660 0.97530 0.07600
H 	H 	0.51740 0.70900 0.09340 0.08300
H 	H 	0.73350 0.74310 0.01590 0.01700
H 	H 	0.06410 0.79530 0.04720 0.05400
H 	H 	0.18300 0.81300 0.15730 0.05300
H 	H 	0.15690 0.79300 0.26970 0.14700
H 	H 	0.96870 0.74410 0.29070 0.15300
H 	H 	0.59090 0.74650 0.26000 0.17200
H 	H 	0.43290 0.70940 0.20340 0.16700
H 	H 	0.23550 0.02470 0.22320 -0.03100
H 	H 	0.00900 0.02310 0.12750 0.11800
H 	H 	0.46450 0.91620 0.04300 0.10000
H 	H 	0.67890 0.92030 0.14180 -0.01600
H 	H 	0.15310 0.96010 0.97350 0.07900
H 	H 	0.97120 0.92470 0.00880 0.07700
H 	H 	0.51750 0.10310 0.36290 -0.01200
H 	H 	0.31300 0.11230 0.44590 0.09700
H 	H 	0.20040 0.89160 0.43130 0.10300
H 	H 	0.41850 0.88450 0.35070 -0.02200
H 	H 	0.16090 0.97110 0.53940 0.07600
H 	H 	0.11900 0.05660 0.52470 0.07600
C 	C 	0.42260 0.72890 0.69260 0.09500
C 	C 	0.22000 0.76090 0.67360 0.09700
C 	C 	0.15220 0.77030 0.60700 -0.11500
C 	C 	0.28160 0.74960 0.56030 -0.02200
C 	C 	0.47790 0.71870 0.57880 -0.01800
C 	C 	0.54840 0.70830 0.64470 -0.11800
C 	C 	0.50200 0.71320 0.76410 -0.44200
C 	C 	0.39840 0.64240 0.78740 0.46400
C 	C 	0.08150 0.78890 0.72370 -0.44000
C 	C 	0.14660 0.86600 0.74990 0.45200
C 	C 	0.78260 0.49670 0.68620 0.12900
C 	C 	0.64560 0.49770 0.62900 -0.20700
C 	C 	0.70950 0.53010 0.57230 0.15100
C 	C 	0.91440 0.56100 0.57890 -0.20100
C 	C 	0.04300 0.55800 0.63830 0.10500
C 	C 	0.56480 0.53180 0.50840 -0.16900
C 	C 	0.95560 0.44040 0.87750 0.11200
C 	C 	0.83280 0.43460 0.92720 -0.20400
C 	C 	0.73720 0.49770 0.95020 0.14700
C 	C 	0.76800 0.56490 0.91890 -0.20500
C 	C 	0.89630 0.56900 0.86980 0.11300
C 	C 	0.60080 0.49360 0.00570 -0.15800
C 	C 	0.07740 0.22890 0.80740 0.05100
C 	C 	0.28000 0.26090 0.82640 0.12700
C 	C 	0.34780 0.27030 0.89300 -0.15100
C 	C 	0.21840 0.24960 0.93970 0.02300
C 	C 	0.02210 0.21870 0.92120 -0.07700
C 	C 	0.95160 0.20830 0.85530 -0.06300
C 	C 	0.99800 0.21320 0.73590 -0.39400
C 	C 	0.10160 0.14240 0.71260 0.44600
C 	C 	0.41850 0.28890 0.77630 -0.45700
C 	C 	0.35340 0.36600 0.75010 0.45800
C 	C 	0.71740 0.99670 0.81380 0.13100
C 	C 	0.85440 0.99770 0.87100 -0.20900
C 	C 	0.79050 0.03010 0.92770 0.15300
C 	C 	0.58560 0.06100 0.92110 -0.20700
C 	C 	0.45700 0.05800 0.86170 0.11300
C 	C 	0.93520 0.03180 0.99160 -0.16600
C 	C 	0.54440 0.94040 0.62250 0.10300
C 	C 	0.66720 0.93460 0.57280 -0.19800
C 	C 	0.76280 0.99770 0.54980 0.14400
C 	C 	0.73200 0.06490 0.58110 -0.20200
C 	C 	0.60370 0.06900 0.63020 0.11200
C 	C 	0.89920 0.99360 0.49430 -0.15800
C 	C 	0.57740 0.27110 0.30740 0.09500
C 	C 	0.78000 0.23910 0.32640 0.09700
C 	C 	0.84780 0.22970 0.39300 -0.11500
C 	C 	0.71840 0.25040 0.43970 -0.02200
C 	C 	0.52210 0.28130 0.42120 -0.01800
C 	C 	0.45160 0.29170 0.35530 -0.11800
C 	C 	0.49800 0.28680 0.23590 -0.44200
C 	C 	0.60160 0.35760 0.21260 0.46400
C 	C 	0.91850 0.21110 0.27630 -0.44000
C 	C 	0.85340 0.13400 0.25010 0.45200
C 	C 	0.21740 0.50330 0.31380 0.12900
C 	C 	0.35440 0.50230 0.37100 -0.20700
C 	C 	0.29050 0.46990 0.42770 0.15100
C 	C 	0.08560 0.43900 0.42110 -0.20100
C 	C 	0.95700 0.44200 0.36170 0.10500
C 	C 	0.43520 0.46820 0.49160 -0.16900
C 	C 	0.04440 0.55960 0.12250 0.11200
C 	C 	0.16720 0.56540 0.07280 -0.20400
C 	C 	0.26280 0.50230 0.04980 0.14700
C 	C 	0.23200 0.43510 0.08110 -0.20500
C 	C 	0.10370 0.43100 0.13020 0.11300
C 	C 	0.39920 0.50640 0.99430 -0.15800
C 	C 	0.92260 0.77110 0.19260 0.05100
C 	C 	0.72000 0.73910 0.17360 0.12700
C 	C 	0.65220 0.72970 0.10700 -0.15100
C 	C 	0.78160 0.75040 0.06030 0.02300
C 	C 	0.97790 0.78130 0.07880 -0.07700
C 	C 	0.04840 0.79170 0.14470 -0.06300
C 	C 	0.00200 0.78680 0.26410 -0.39400
C 	C 	0.89840 0.85760 0.28740 0.44600
C 	C 	0.58150 0.71110 0.22370 -0.45700
C 	C 	0.64660 0.63400 0.24990 0.45800
C 	C 	0.28260 0.00330 0.18620 0.13100
C 	C 	0.14560 0.00230 0.12900 -0.20900
C 	C 	0.20950 0.96990 0.07230 0.15300
C 	C 	0.41440 0.93900 0.07890 -0.20700
C 	C 	0.54300 0.94200 0.13830 0.11300
C 	C 	0.06480 0.96820 0.00840 -0.16600
C 	C 	0.45560 0.05960 0.37750 0.10300
C 	C 	0.33280 0.06540 0.42720 -0.19800
C 	C 	0.23720 0.00230 0.45020 0.14400
C 	C 	0.26800 0.93510 0.41890 -0.20200
C 	C 	0.39630 0.93100 0.36980 0.11200
C 	C 	0.10080 0.00640 0.50570 -0.15800
N 	N 	0.98110 0.52490 0.69170 -0.28000
N 	N 	0.99100 0.50690 0.84860 -0.27500
N 	N 	0.51890 0.02490 0.80830 -0.28400
N 	N 	0.50900 0.00690 0.65140 -0.27400
N 	N 	0.01890 0.47510 0.30830 -0.28000
N 	N 	0.00900 0.49310 0.15140 -0.27500
N 	N 	0.48110 0.97510 0.19170 -0.28400
N 	N 	0.49100 0.99310 0.34860 -0.27400
O 	O 	0.41220 0.58370 0.75520 -0.49500
O 	O 	0.30130 0.64290 0.83430 -0.39900
O 	O 	0.18860 0.91350 0.70720 -0.49900
O 	O 	0.15690 0.88060 0.80930 -0.34200
O 	O 	0.08780 0.08370 0.74480 -0.49100
O 	O 	0.19870 0.14290 0.66570 -0.39300
O 	O 	0.31140 0.41350 0.79280 -0.50100
O 	O 	0.34310 0.38060 0.69070 -0.34400
O 	O 	0.58780 0.41630 0.24480 -0.49500
O 	O 	0.69870 0.35710 0.16570 -0.39900
O 	O 	0.81140 0.08650 0.29280 -0.49900
O 	O 	0.84310 0.11940 0.19070 -0.34200
O 	O 	0.91220 0.91630 0.25520 -0.49100
O 	O 	0.80130 0.85710 0.33430 -0.39300
O 	O 	0.68860 0.58650 0.20720 -0.50100
O 	O 	0.65690 0.61940 0.30930 -0.34400
