data_crystal

_cell_length_a 10.20400
_cell_length_b 10.20400
_cell_length_c 13.09980
_cell_angle_alpha 90.00000
_cell_angle_beta  90.00000
_cell_angle_gamma 90.00000

_symmetry_space_group_name_	'P 1'
_symmetry_space_group_name_H-M	'P 1'

loop_
_symmetry_equiv_pos_as_xyz
  x,y,z

loop_
_atom_site_label
_atom_site_type_symbol
_atom_site_fract_x
_atom_site_fract_y
_atom_site_fract_z
_atom_site_charge
Zn	Zn	0.73031 0.73031 0.50000 1.18000
Zn	Zn	0.26969 0.26969 -0.00000 1.16100
Zn	Zn	0.76969 0.23031 0.75000 1.18100
Zn	Zn	0.23031 0.76969 0.25000 1.17900
H 	H 	0.62150 0.45320 0.44760 -0.02900
H 	H 	0.86910 0.51150 0.76650 0.12100
H 	H 	0.85790 0.63620 0.70810 0.13600
H 	H 	0.37850 0.54680 0.94760 0.05200
H 	H 	0.13090 0.48850 0.26650 0.11400
H 	H 	0.14210 0.36380 0.20810 0.12900
H 	H 	0.04680 0.12150 0.69760 -0.02700
H 	H 	0.98850 0.36910 0.01650 0.05600
H 	H 	0.86380 0.35790 0.95810 0.13200
H 	H 	0.95320 0.87850 0.19760 -0.03400
H 	H 	0.01150 0.63090 0.51650 0.11700
H 	H 	0.13620 0.64210 0.45810 0.13300
H 	H 	0.87850 0.95320 0.80240 -0.02000
H 	H 	0.63090 0.01150 0.48350 0.11400
H 	H 	0.64210 0.13620 0.54190 0.13200
H 	H 	0.12150 0.04680 0.30240 -0.02700
H 	H 	0.36910 0.98850 0.98350 0.17000
H 	H 	0.35790 0.86380 0.04190 0.13200
H 	H 	0.45320 0.62150 0.55240 -0.02600
H 	H 	0.51150 0.86910 0.23350 0.11000
H 	H 	0.63620 0.85790 0.29190 0.12800
H 	H 	0.54680 0.37850 0.05240 -0.10800
H 	H 	0.48850 0.13090 0.73350 0.11800
H 	H 	0.36380 0.14210 0.79190 0.13700
C 	C 	0.77130 0.49100 0.64020 0.20600
C 	C 	0.66490 0.44600 0.50980 0.08100
C 	C 	0.22870 0.50900 0.14020 0.20300
C 	C 	0.33510 0.55400 0.00980 -0.03600
C 	C 	0.00900 0.27130 0.89020 0.20800
C 	C 	0.05400 0.16490 0.75980 0.08500
C 	C 	0.99100 0.72870 0.39020 0.19900
C 	C 	0.94600 0.83510 0.25980 0.07700
C 	C 	0.72870 0.99100 0.60980 0.20200
C 	C 	0.83510 0.94600 0.74020 0.08000
C 	C 	0.27130 0.00900 0.10980 0.19400
C 	C 	0.16490 0.05400 0.24020 0.07300
C 	C 	0.49100 0.77130 0.35980 0.20200
C 	C 	0.44600 0.66490 0.49020 0.08100
C 	C 	0.50900 0.22870 0.85980 0.20700
C 	C 	0.55400 0.33510 0.99020 0.20300
N 	N 	0.72590 0.54800 0.55770 -0.31800
N 	N 	0.74740 0.36670 0.65040 -0.30000
N 	N 	0.67430 0.33700 0.56090 -0.13900
N 	N 	0.84140 0.55400 0.71410 -0.34100
N 	N 	0.27410 0.45200 0.05770 -0.31000
N 	N 	0.25260 0.63330 0.15040 -0.30200
N 	N 	0.32570 0.66300 0.06090 -0.12800
N 	N 	0.15860 0.44600 0.21410 -0.33900
N 	N 	0.95200 0.22590 0.80770 -0.31600
N 	N 	0.13330 0.24740 0.90040 -0.28000
N 	N 	0.16300 0.17430 0.81090 -0.13500
N 	N 	0.94600 0.34140 0.96410 -0.28100
N 	N 	0.04800 0.77410 0.30770 -0.31500
N 	N 	0.86670 0.75260 0.40040 -0.30000
N 	N 	0.83700 0.82570 0.31090 -0.14100
N 	N 	0.05400 0.65860 0.46410 -0.33800
N 	N 	0.77410 0.04800 0.69230 -0.31400
N 	N 	0.75260 0.86670 0.59960 -0.29900
N 	N 	0.82570 0.83700 0.68910 -0.13600
N 	N 	0.65860 0.05400 0.53590 -0.33800
N 	N 	0.22590 0.95200 0.19230 -0.31400
N 	N 	0.24740 0.13330 0.09960 -0.31200
N 	N 	0.17430 0.16300 0.18910 -0.14100
N 	N 	0.34140 0.94600 0.03590 -0.38900
N 	N 	0.54800 0.72590 0.44230 -0.31700
N 	N 	0.36670 0.74740 0.34960 -0.30000
N 	N 	0.33700 0.67430 0.43910 -0.13900
N 	N 	0.55400 0.84140 0.28590 -0.33800
N 	N 	0.45200 0.27410 0.94230 -0.32000
N 	N 	0.63330 0.25260 0.84960 -0.29700
N 	N 	0.66300 0.32570 0.93910 -0.15000
N 	N 	0.44600 0.15860 0.78590 -0.33900
