data_crystal

_cell_length_a 15.17510
_cell_length_b 15.17510
_cell_length_c 22.56040
_cell_angle_alpha 90.00000
_cell_angle_beta  90.00000
_cell_angle_gamma 90.00000

_symmetry_space_group_name_	'P 1'
_symmetry_space_group_name_H-M	'P 1'

loop_
_symmetry_equiv_pos_as_xyz
  x,y,z

loop_
_atom_site_label
_atom_site_type_symbol
_atom_site_fract_x
_atom_site_fract_y
_atom_site_fract_z
_atom_site_charge
Zn	Zn	0.75753 0.66679 0.85609 1.22100
Zn	Zn	0.24247 0.33321 0.35610 1.22100
Zn	Zn	0.83321 0.25753 0.60609 1.22100
Zn	Zn	0.16679 0.74247 0.10610 1.22000
Zn	Zn	0.74247 0.16679 0.89391 1.22200
Zn	Zn	0.25753 0.83321 0.39391 1.22100
Zn	Zn	0.66679 0.75753 0.14391 1.22100
Zn	Zn	0.33321 0.24247 0.64391 1.22100
Zn	Zn	0.72128 0.72128 -0.00000 1.24300
Zn	Zn	0.27872 0.27872 0.50000 1.25100
Zn	Zn	0.77872 0.22128 0.75000 1.25000
Zn	Zn	0.22128 0.77872 0.25000 1.25000
H 	H 	0.99410 0.74090 0.03710 0.01800
H 	H 	0.03660 0.63280 0.87750 0.03200
H 	H 	0.18790 0.62900 0.89850 0.07400
H 	H 	0.32460 0.63550 0.92370 0.08700
H 	H 	0.46930 0.64570 0.95580 0.01300
H 	H 	0.37930 0.73730 0.11250 0.01100
H 	H 	0.56960 0.79290 0.90560 -0.06700
H 	H 	0.00590 0.25910 0.53710 0.02100
H 	H 	0.96340 0.36720 0.37750 0.02800
H 	H 	0.81210 0.37100 0.39850 0.07400
H 	H 	0.67540 0.36450 0.42370 0.07300
H 	H 	0.53070 0.35430 0.45580 0.02800
H 	H 	0.62070 0.26270 0.61250 0.01800
H 	H 	0.43040 0.20710 0.40560 -0.07500
H 	H 	0.75910 0.49410 0.78710 0.01600
H 	H 	0.86720 0.53660 0.62750 0.02600
H 	H 	0.87100 0.68790 0.64850 0.07600
H 	H 	0.86450 0.82460 0.67370 0.07300
H 	H 	0.85430 0.96930 0.70580 0.02900
H 	H 	0.76270 0.87930 0.86250 0.02100
H 	H 	0.70710 0.06960 0.65560 -0.07500
H 	H 	0.24090 0.50590 0.28710 0.01500
H 	H 	0.13280 0.46340 0.12750 0.02300
H 	H 	0.12900 0.31210 0.14850 0.07300
H 	H 	0.13550 0.17540 0.17370 0.07100
H 	H 	0.14570 0.03070 0.20580 0.02600
H 	H 	0.23730 0.12070 0.36250 0.01700
H 	H 	0.29290 0.93040 0.15560 -0.07600
H 	H 	0.50590 0.24090 0.71290 0.01600
H 	H 	0.46340 0.13280 0.87250 0.03000
H 	H 	0.31210 0.12900 0.85150 0.07800
H 	H 	0.17540 0.13550 0.82630 0.07500
H 	H 	0.03070 0.14570 0.79420 0.02900
H 	H 	0.12070 0.23730 0.63750 0.01800
H 	H 	0.93040 0.29290 0.84440 -0.07200
H 	H 	0.49410 0.75910 0.21290 0.01600
H 	H 	0.53660 0.86720 0.37250 0.02700
H 	H 	0.68790 0.87100 0.35150 0.07600
H 	H 	0.82460 0.86450 0.32630 0.07400
H 	H 	0.96930 0.85430 0.29420 0.02600
H 	H 	0.87930 0.76270 0.13750 0.01500
H 	H 	0.06960 0.70710 0.34440 -0.07300
H 	H 	0.74090 0.99410 0.96290 0.01200
H 	H 	0.63280 0.03660 0.12250 0.02100
H 	H 	0.62900 0.18790 0.10150 0.07700
H 	H 	0.63550 0.32460 0.07630 0.05800
H 	H 	0.64570 0.46930 0.04420 0.04400
H 	H 	0.73730 0.37930 0.88750 0.02500
H 	H 	0.79290 0.56960 0.09440 -0.08100
H 	H 	0.25910 0.00590 0.46290 0.01100
H 	H 	0.36720 0.96340 0.62250 0.02500
H 	H 	0.37100 0.81210 0.60150 0.07800
H 	H 	0.36450 0.67540 0.57630 0.07300
H 	H 	0.35430 0.53070 0.54420 0.02800
H 	H 	0.26270 0.62070 0.38750 0.01800
H 	H 	0.20710 0.43040 0.59440 -0.07400
C 	C 	0.03350 0.71730 0.00840 0.06700
C 	C 	0.99890 0.68770 0.95520 -0.11000
C 	C 	0.05770 0.65410 0.91450 0.06000
C 	C 	0.14700 0.65080 0.92680 -0.11100
C 	C 	0.17500 0.68050 0.98190 0.07400
C 	C 	0.26860 0.68040 0.99900 0.08900
C 	C 	0.33690 0.65640 0.96250 -0.14700
C 	C 	0.42230 0.66220 0.98130 0.13000
C 	C 	0.43960 0.69260 0.03830 -0.18200
C 	C 	0.36800 0.71700 0.07340 0.11200
C 	C 	0.90130 0.69530 0.94276 0.40500
C 	C 	0.53270 0.71180 0.05780 0.40400
C 	C 	0.61200 0.75570 0.88730 0.40200
C 	C 	0.96650 0.28270 0.50840 0.09300
C 	C 	0.00110 0.31230 0.45520 -0.13600
C 	C 	0.94230 0.34590 0.41450 0.06400
C 	C 	0.85300 0.34920 0.42680 -0.11700
C 	C 	0.82500 0.31950 0.48190 0.06200
C 	C 	0.73140 0.31960 0.49900 0.05300
C 	C 	0.66310 0.34360 0.46250 -0.11100
C 	C 	0.57770 0.33780 0.48130 0.06300
C 	C 	0.56040 0.30740 0.53830 -0.13000
C 	C 	0.63200 0.28300 0.57340 0.09400
C 	C 	0.09870 0.30470 0.44276 0.41300
C 	C 	0.46730 0.28820 0.55780 0.38900
C 	C 	0.38800 0.24430 0.38730 0.40400
C 	C 	0.78270 0.53350 0.75840 0.10400
C 	C 	0.81230 0.49890 0.70520 -0.14600
C 	C 	0.84590 0.55770 0.66450 0.07300
C 	C 	0.84920 0.64700 0.67680 -0.12200
C 	C 	0.81950 0.67500 0.73190 0.06500
C 	C 	0.81960 0.76860 0.74900 0.05200
C 	C 	0.84360 0.83690 0.71250 -0.10800
C 	C 	0.83780 0.92230 0.73130 0.06100
C 	C 	0.80740 0.93960 0.78830 -0.12500
C 	C 	0.78300 0.86800 0.82340 0.09300
C 	C 	0.80470 0.40130 0.69276 0.41600
C 	C 	0.78820 0.03270 0.80780 0.38600
C 	C 	0.74430 0.11200 0.63730 0.40400
C 	C 	0.21730 0.46650 0.25840 0.10400
C 	C 	0.18770 0.50110 0.20520 -0.14700
C 	C 	0.15410 0.44230 0.16450 0.07200
C 	C 	0.15080 0.35300 0.17680 -0.12300
C 	C 	0.18050 0.32500 0.23190 0.06400
C 	C 	0.18040 0.23140 0.24900 0.05200
C 	C 	0.15640 0.16310 0.21250 -0.11100
C 	C 	0.16220 0.07770 0.23130 0.06300
C 	C 	0.19260 0.06040 0.28830 -0.13300
C 	C 	0.21700 0.13200 0.32340 0.09500
C 	C 	0.19530 0.59870 0.19276 0.41600
C 	C 	0.21180 0.96730 0.30780 0.39100
C 	C 	0.25570 0.88800 0.13730 0.40600
C 	C 	0.46650 0.21730 0.74160 0.10300
C 	C 	0.50110 0.18770 0.79480 -0.14400
C 	C 	0.44230 0.15410 0.83550 0.07200
C 	C 	0.35300 0.15080 0.82320 -0.12000
C 	C 	0.32500 0.18050 0.76810 0.06500
C 	C 	0.23140 0.18040 0.75100 0.05300
C 	C 	0.16310 0.15640 0.78750 -0.11000
C 	C 	0.07770 0.16220 0.76870 0.06300
C 	C 	0.06040 0.19260 0.71170 -0.12800
C 	C 	0.13200 0.21700 0.67660 0.09400
C 	C 	0.59870 0.19530 0.80724 0.41500
C 	C 	0.96730 0.21180 0.69220 0.38700
C 	C 	0.88800 0.25570 0.86270 0.40200
C 	C 	0.53350 0.78270 0.24160 0.10300
C 	C 	0.49890 0.81230 0.29480 -0.14600
C 	C 	0.55770 0.84590 0.33550 0.07200
C 	C 	0.64700 0.84920 0.32320 -0.12100
C 	C 	0.67500 0.81950 0.26810 0.06400
C 	C 	0.76860 0.81960 0.25100 0.05300
C 	C 	0.83690 0.84360 0.28750 -0.11200
C 	C 	0.92230 0.83780 0.26870 0.06500
C 	C 	0.93960 0.80740 0.21170 -0.13500
C 	C 	0.86800 0.78300 0.17660 0.09600
C 	C 	0.40130 0.80470 0.30724 0.41600
C 	C 	0.03270 0.78820 0.19220 0.39300
C 	C 	0.11200 0.74430 0.36270 0.40400
C 	C 	0.71730 0.03350 0.99160 0.14100
C 	C 	0.68770 0.99890 0.04480 -0.18000
C 	C 	0.65410 0.05770 0.08550 0.08200
C 	C 	0.65080 0.14700 0.07320 -0.13000
C 	C 	0.68050 0.17500 0.01810 0.05400
C 	C 	0.68040 0.26860 0.00100 0.01500
C 	C 	0.65640 0.33690 0.03750 -0.07300
C 	C 	0.66220 0.42230 0.01870 -0.00500
C 	C 	0.69260 0.43960 0.96170 -0.07700
C 	C 	0.71700 0.36800 0.92660 0.07600
C 	C 	0.69530 0.90130 0.05724 0.42500
C 	C 	0.71180 0.53270 0.94220 0.37300
C 	C 	0.75570 0.61200 0.11270 0.40500
C 	C 	0.28270 0.96650 0.49160 0.11200
C 	C 	0.31230 0.00110 0.54480 -0.15400
C 	C 	0.34590 0.94230 0.58550 0.07900
C 	C 	0.34920 0.85300 0.57320 -0.12500
C 	C 	0.31950 0.82500 0.51810 0.06700
C 	C 	0.31960 0.73140 0.50100 0.05200
C 	C 	0.34360 0.66310 0.53750 -0.11000
C 	C 	0.33780 0.57770 0.51870 0.06300
C 	C 	0.30740 0.56040 0.46170 -0.13000
C 	C 	0.28300 0.63200 0.42660 0.09500
C 	C 	0.30470 0.09870 0.55724 0.41800
C 	C 	0.28820 0.46730 0.44220 0.38900
C 	C 	0.24430 0.38800 0.61270 0.40400
N 	N 	0.11730 0.71430 0.02120 -0.25100
N 	N 	0.28480 0.71310 0.05500 -0.24400
N 	N 	0.88270 0.28570 0.52120 -0.24200
N 	N 	0.71520 0.28690 0.55500 -0.22400
N 	N 	0.78570 0.61730 0.77120 -0.24400
N 	N 	0.78690 0.78480 0.80500 -0.22300
N 	N 	0.21430 0.38270 0.27120 -0.24400
N 	N 	0.21310 0.21520 0.30500 -0.22400
N 	N 	0.38270 0.21430 0.72880 -0.24400
N 	N 	0.21520 0.21310 0.69500 -0.22300
N 	N 	0.61730 0.78570 0.22880 -0.24400
N 	N 	0.78480 0.78690 0.19500 -0.22400
N 	N 	0.71430 0.11730 0.97880 -0.23700
N 	N 	0.71310 0.28480 0.94500 -0.20300
N 	N 	0.28570 0.88270 0.47880 -0.24600
N 	N 	0.28690 0.71520 0.44500 -0.22300
O 	O 	0.85400 0.72600 0.98227 -0.42300
O 	O 	0.87809 0.66620 0.89252 -0.46000
O 	O 	0.58500 0.72180 0.01450 -0.44900
O 	O 	0.54587 0.71962 0.11228 -0.45200
O 	O 	0.68652 0.74507 0.91177 -0.56400
O 	O 	0.59330 0.71800 0.83953 -0.33200
O 	O 	0.14600 0.27400 0.48227 -0.44100
O 	O 	0.12191 0.33380 0.39252 -0.46300
O 	O 	0.41500 0.27820 0.51450 -0.43200
O 	O 	0.45413 0.28038 0.61228 -0.44700
O 	O 	0.31348 0.25493 0.41177 -0.57300
O 	O 	0.40670 0.28200 0.33953 -0.33600
O 	O 	0.77400 0.35400 0.73227 -0.44200
O 	O 	0.83380 0.37809 0.64252 -0.46400
O 	O 	0.77820 0.08500 0.76450 -0.43200
O 	O 	0.78038 0.04587 0.86228 -0.44500
O 	O 	0.75493 0.18652 0.66177 -0.57300
O 	O 	0.78200 0.09330 0.58953 -0.33600
O 	O 	0.22600 0.64600 0.23227 -0.44200
O 	O 	0.16620 0.62191 0.14252 -0.46700
O 	O 	0.22180 0.91500 0.26450 -0.43200
O 	O 	0.21962 0.95413 0.36228 -0.44600
O 	O 	0.24507 0.81348 0.16177 -0.57400
O 	O 	0.21800 0.90670 0.08953 -0.34100
O 	O 	0.64600 0.22600 0.76773 -0.44100
O 	O 	0.62191 0.16620 0.85748 -0.46100
O 	O 	0.91500 0.22180 0.73550 -0.43200
O 	O 	0.95413 0.21962 0.63772 -0.44700
O 	O 	0.81348 0.24507 0.83823 -0.57200
O 	O 	0.90670 0.21800 0.91047 -0.32900
O 	O 	0.35400 0.77400 0.26773 -0.44200
O 	O 	0.37809 0.83380 0.35748 -0.46400
O 	O 	0.08500 0.77820 0.23550 -0.43300
O 	O 	0.04587 0.78038 0.13772 -0.44800
O 	O 	0.18652 0.75493 0.33823 -0.57300
O 	O 	0.09330 0.78200 0.41047 -0.33400
O 	O 	0.72600 0.85400 0.01773 -0.45700
O 	O 	0.66620 0.87809 0.10748 -0.46700
O 	O 	0.72180 0.58500 0.98550 -0.41200
O 	O 	0.71962 0.54587 0.88772 -0.44100
O 	O 	0.74507 0.68652 0.08823 -0.57900
O 	O 	0.71800 0.59330 0.16047 -0.33700
O 	O 	0.27400 0.14600 0.51773 -0.44200
O 	O 	0.33380 0.12191 0.60748 -0.46500
O 	O 	0.27820 0.41500 0.48550 -0.43200
O 	O 	0.28038 0.45413 0.38772 -0.44700
O 	O 	0.25493 0.31348 0.58823 -0.57300
O 	O 	0.28200 0.40670 0.66047 -0.33400
