data_LIRNEH_original

_audit_creation_method RASPA-1.0
_audit_creation_date 2022-1-28
_audit_author_name 'Felipe Lopes de Oliveira <felipe.lopes.oliveira@ibm.com>'

_cell_length_a    17.2
_cell_length_b    19.278
_cell_length_c    19.71
_cell_angle_alpha 112.792
_cell_angle_beta  90
_cell_angle_gamma 90
_cell_volume      6025.17

_symmetry_cell_setting          triclinic
_symmetry_space_group_name_Hall 'P 1'
_symmetry_space_group_name_H-M  'P 1'
_symmetry_Int_Tables_number     1

_symmetry_equiv_pos_as_xyz 'x,y,z'

loop_
_atom_site_label
_atom_site_type_symbol
_atom_site_fract_x
_atom_site_fract_y
_atom_site_fract_z
_atom_site_charge
Zn       Zn     0.732040000000     0.984900000000     0.802590000000     0.394204   
Zn       Zn     0.775020000000     0.460140000000     0.157800000000     0.394204   
Zn       Zn     0.232040000000     0.015100000000     0.697410000000     0.394204   
Zn       Zn     0.275020000000     0.539860000000     0.342200000000     0.394204   
Zn       Zn     0.267960000000     0.015100000000     0.197410000000     0.394204   
Zn       Zn     0.224980000000     0.539860000000     0.842200000000     0.394204   
Zn       Zn     0.767960000000     0.984900000000     0.302590000000     0.394204   
Zn       Zn     0.724980000000     0.460140000000     0.657800000000     0.394204   
H        H      0.856000000000     0.302200000000     0.990900000000     0.0720218  
H        H      0.852900000000     0.296000000000     0.068000000000     0.0720218  
H        H      0.732200000000     0.278300000000     0.081600000000     0.0720218  
H        H      0.686700000000     0.285000000000     0.015400000000     0.0720218  
H        H      0.695900000000     0.417400000000     0.012100000000     0.0720218  
H        H      0.783000000000     0.436400000000     0.004600000000     0.0720218  
H        H      0.634800000000     0.307500000000     0.914500000000     0.0720218  
H        H      0.633600000000     0.231200000000     0.791700000000     0.0720218  
H        H      0.855700000000     0.282600000000     0.774700000000     0.0720218  
H        H      0.857700000000     0.358800000000     0.897000000000     0.0720218  
H        H      0.630300000000     0.214000000000     0.670100000000     0.0720218  
H        H      0.628300000000     0.136400000000     0.547800000000     0.0720218  
H        H      0.852900000000     0.088800000000     0.558100000000     0.0720218  
H        H      0.855500000000     0.167600000000     0.680100000000     0.0720218  
H        H      0.687100000000     0.029100000000     0.447700000000     0.0720218  
H        H      0.774200000000     0.009100000000     0.454100000000     0.0720218  
H        H      0.844100000000     0.145400000000     0.468800000000     0.0720218  
H        H      0.844300000000     0.150900000000     0.391400000000     0.0720218  
H        H      0.720400000000     0.170900000000     0.381000000000     0.0720218  
H        H      0.674200000000     0.156900000000     0.443100000000     0.0720218  
H        H      0.628000000000     0.556800000000     0.142900000000     0.0720218  
H        H      0.638500000000     0.678900000000     0.131200000000     0.0720218  
H        H      0.848800000000     0.603000000000     0.141100000000     0.0720218  
H        H      0.845800000000     0.732300000000     0.133700000000     0.0720218  
H        H      0.768200000000     0.776600000000     0.163500000000     0.0720218  
H        H      0.676700000000     0.793400000000     0.077400000000     0.0720218  
H        H      0.646200000000     0.785300000000     0.960600000000     0.0720218  
H        H      0.829800000000     0.654200000000     0.881200000000     0.0720218  
H        H      0.862900000000     0.664600000000     0.999100000000     0.0720218  
H        H      0.738800000000     0.667000000000     0.797700000000     0.0720218  
H        H      0.660800000000     0.711100000000     0.826100000000     0.0720218  
H        H      0.864600000000     0.754400000000     0.805800000000     0.0720218  
H        H      0.874900000000     0.875700000000     0.794200000000     0.0720218  
H        H      0.658100000000     0.847400000000     0.831000000000     0.0720218  
H        H      0.593500000000     0.924500000000     0.690800000000     0.0720218  
H        H      0.797500000000     0.989100000000     0.649200000000     0.0720218  
H        H      0.724900000000     0.938400000000     0.534700000000     0.0720218  
H        H      0.535200000000     0.865400000000     0.564000000000     0.0720218  
H        H      0.594300000000     0.847300000000     0.498700000000     0.0720218  
H        H      0.514600000000     0.021100000000     0.621800000000     0.0720218  
H        H      0.545100000000     0.889200000000     0.411500000000     0.0720218  
H        H      0.908600000000     0.526200000000     0.268800000000     0.0720218  
H        H      0.706800000000     0.462700000000     0.315000000000     0.0720218  
H        H      0.776400000000     0.522200000000     0.430200000000     0.0720218  
H        H      0.902100000000     0.625000000000     0.455000000000     0.0720218  
H        H      0.964800000000     0.594300000000     0.392800000000     0.0720218  
H        H      0.938200000000     0.432300000000     0.391200000000     0.0720218  
H        H      0.001100000000     0.629100000000     0.543900000000     0.0720218  
H        H      0.356000000000     0.697800000000     0.509100000000     0.0720218  
H        H      0.352900000000     0.704000000000     0.432000000000     0.0720218  
H        H      0.232200000000     0.721700000000     0.418400000000     0.0720218  
H        H      0.186700000000     0.715000000000     0.484600000000     0.0720218  
H        H      0.195900000000     0.582600000000     0.487900000000     0.0720218  
H        H      0.283000000000     0.563600000000     0.495400000000     0.0720218  
H        H      0.134800000000     0.692500000000     0.585500000000     0.0720218  
H        H      0.133600000000     0.768800000000     0.708300000000     0.0720218  
H        H      0.355700000000     0.717400000000     0.725300000000     0.0720218  
H        H      0.357700000000     0.641200000000     0.603000000000     0.0720218  
H        H      0.130300000000     0.786000000000     0.829900000000     0.0720218  
H        H      0.128300000000     0.863600000000     0.952200000000     0.0720218  
H        H      0.352900000000     0.911200000000     0.941900000000     0.0720218  
H        H      0.355500000000     0.832400000000     0.819900000000     0.0720218  
H        H      0.187100000000     0.970900000000     0.052300000000     0.0720218  
H        H      0.274200000000     0.990900000000     0.045900000000     0.0720218  
H        H      0.344100000000     0.854600000000     0.031200000000     0.0720218  
H        H      0.344300000000     0.849100000000     0.108600000000     0.0720218  
H        H      0.220400000000     0.829100000000     0.119000000000     0.0720218  
H        H      0.174200000000     0.843100000000     0.056900000000     0.0720218  
H        H      0.128000000000     0.443200000000     0.357100000000     0.0720218  
H        H      0.138500000000     0.321100000000     0.368800000000     0.0720218  
H        H      0.348800000000     0.397000000000     0.358900000000     0.0720218  
H        H      0.345800000000     0.267700000000     0.366300000000     0.0720218  
H        H      0.268200000000     0.223400000000     0.336500000000     0.0720218  
H        H      0.176700000000     0.206600000000     0.422600000000     0.0720218  
H        H      0.146200000000     0.214700000000     0.539400000000     0.0720218  
H        H      0.329800000000     0.345800000000     0.618800000000     0.0720218  
H        H      0.362900000000     0.335400000000     0.500900000000     0.0720218  
H        H      0.238800000000     0.333000000000     0.702300000000     0.0720218  
H        H      0.160800000000     0.288900000000     0.673900000000     0.0720218  
H        H      0.364600000000     0.245600000000     0.694200000000     0.0720218  
H        H      0.374900000000     0.124300000000     0.705800000000     0.0720218  
H        H      0.158100000000     0.152600000000     0.669000000000     0.0720218  
H        H      0.093500000000     0.075500000000     0.809200000000     0.0720218  
H        H      0.297500000000     0.010900000000     0.850800000000     0.0720218  
H        H      0.224900000000     0.061600000000     0.965300000000     0.0720218  
H        H      0.035200000000     0.134600000000     0.936000000000     0.0720218  
H        H      0.094300000000     0.152700000000     0.001300000000     0.0720218  
H        H      0.014600000000     0.978900000000     0.878200000000     0.0720218  
H        H      0.045100000000     0.110800000000     0.088500000000     0.0720218  
H        H      0.408600000000     0.473800000000     0.231200000000     0.0720218  
H        H      0.206800000000     0.537300000000     0.185000000000     0.0720218  
H        H      0.276400000000     0.477800000000     0.069800000000     0.0720218  
H        H      0.402100000000     0.375000000000     0.045000000000     0.0720218  
H        H      0.464800000000     0.405700000000     0.107200000000     0.0720218  
H        H      0.438200000000     0.567700000000     0.108800000000     0.0720218  
H        H      0.501100000000     0.370900000000     0.956100000000     0.0720218  
H        H      0.144000000000     0.697800000000     0.009100000000     0.0720218  
H        H      0.147100000000     0.704000000000     0.932000000000     0.0720218  
H        H      0.267800000000     0.721700000000     0.918400000000     0.0720218  
H        H      0.313300000000     0.715000000000     0.984600000000     0.0720218  
H        H      0.304100000000     0.582600000000     0.987900000000     0.0720218  
H        H      0.217000000000     0.563600000000     0.995400000000     0.0720218  
H        H      0.365200000000     0.692500000000     0.085500000000     0.0720218  
H        H      0.366400000000     0.768800000000     0.208300000000     0.0720218  
H        H      0.144300000000     0.717400000000     0.225300000000     0.0720218  
H        H      0.142300000000     0.641200000000     0.103000000000     0.0720218  
H        H      0.369700000000     0.786000000000     0.329900000000     0.0720218  
H        H      0.371700000000     0.863600000000     0.452200000000     0.0720218  
H        H      0.147100000000     0.911200000000     0.441900000000     0.0720218  
H        H      0.144500000000     0.832400000000     0.319900000000     0.0720218  
H        H      0.312900000000     0.970900000000     0.552300000000     0.0720218  
H        H      0.225800000000     0.990900000000     0.545900000000     0.0720218  
H        H      0.155900000000     0.854600000000     0.531200000000     0.0720218  
H        H      0.155700000000     0.849100000000     0.608600000000     0.0720218  
H        H      0.279600000000     0.829100000000     0.619000000000     0.0720218  
H        H      0.325800000000     0.843100000000     0.556900000000     0.0720218  
H        H      0.372000000000     0.443200000000     0.857100000000     0.0720218  
H        H      0.361500000000     0.321100000000     0.868800000000     0.0720218  
H        H      0.151200000000     0.397000000000     0.858900000000     0.0720218  
H        H      0.154200000000     0.267700000000     0.866300000000     0.0720218  
H        H      0.231800000000     0.223400000000     0.836500000000     0.0720218  
H        H      0.323300000000     0.206600000000     0.922600000000     0.0720218  
H        H      0.353800000000     0.214700000000     0.039400000000     0.0720218  
H        H      0.170200000000     0.345800000000     0.118800000000     0.0720218  
H        H      0.137100000000     0.335400000000     0.000900000000     0.0720218  
H        H      0.261200000000     0.333000000000     0.202300000000     0.0720218  
H        H      0.339200000000     0.288900000000     0.173900000000     0.0720218  
H        H      0.135400000000     0.245600000000     0.194200000000     0.0720218  
H        H      0.125100000000     0.124300000000     0.205800000000     0.0720218  
H        H      0.341900000000     0.152600000000     0.169000000000     0.0720218  
H        H      0.406500000000     0.075500000000     0.309200000000     0.0720218  
H        H      0.202500000000     0.010900000000     0.350800000000     0.0720218  
H        H      0.275100000000     0.061600000000     0.465300000000     0.0720218  
H        H      0.464800000000     0.134600000000     0.436000000000     0.0720218  
H        H      0.405700000000     0.152700000000     0.501300000000     0.0720218  
H        H      0.485400000000     0.978900000000     0.378200000000     0.0720218  
H        H      0.454900000000     0.110800000000     0.588500000000     0.0720218  
H        H      0.091400000000     0.473800000000     0.731200000000     0.0720218  
H        H      0.293200000000     0.537300000000     0.685000000000     0.0720218  
H        H      0.223600000000     0.477800000000     0.569800000000     0.0720218  
H        H      0.097900000000     0.375000000000     0.545000000000     0.0720218  
H        H      0.035200000000     0.405700000000     0.607200000000     0.0720218  
H        H      0.061800000000     0.567700000000     0.608800000000     0.0720218  
H        H      0.998900000000     0.370900000000     0.456100000000     0.0720218  
H        H      0.644000000000     0.302200000000     0.490900000000     0.0720218  
H        H      0.647100000000     0.296000000000     0.568000000000     0.0720218  
H        H      0.767800000000     0.278300000000     0.581600000000     0.0720218  
H        H      0.813300000000     0.285000000000     0.515400000000     0.0720218  
H        H      0.804100000000     0.417400000000     0.512100000000     0.0720218  
H        H      0.717000000000     0.436400000000     0.504600000000     0.0720218  
H        H      0.865200000000     0.307500000000     0.414500000000     0.0720218  
H        H      0.866400000000     0.231200000000     0.291700000000     0.0720218  
H        H      0.644300000000     0.282600000000     0.274700000000     0.0720218  
H        H      0.642300000000     0.358800000000     0.397000000000     0.0720218  
H        H      0.869700000000     0.214000000000     0.170100000000     0.0720218  
H        H      0.871700000000     0.136400000000     0.047800000000     0.0720218  
H        H      0.647100000000     0.088800000000     0.058100000000     0.0720218  
H        H      0.644500000000     0.167600000000     0.180100000000     0.0720218  
H        H      0.812900000000     0.029100000000     0.947700000000     0.0720218  
H        H      0.725800000000     0.009100000000     0.954100000000     0.0720218  
H        H      0.655900000000     0.145400000000     0.968800000000     0.0720218  
H        H      0.655700000000     0.150900000000     0.891400000000     0.0720218  
H        H      0.779600000000     0.170900000000     0.881000000000     0.0720218  
H        H      0.825800000000     0.156900000000     0.943100000000     0.0720218  
H        H      0.872000000000     0.556800000000     0.642900000000     0.0720218  
H        H      0.861500000000     0.678900000000     0.631200000000     0.0720218  
H        H      0.651200000000     0.603000000000     0.641100000000     0.0720218  
H        H      0.654200000000     0.732300000000     0.633700000000     0.0720218  
H        H      0.731800000000     0.776600000000     0.663500000000     0.0720218  
H        H      0.823300000000     0.793400000000     0.577400000000     0.0720218  
H        H      0.853800000000     0.785300000000     0.460600000000     0.0720218  
H        H      0.670200000000     0.654200000000     0.381200000000     0.0720218  
H        H      0.637100000000     0.664600000000     0.499100000000     0.0720218  
H        H      0.761200000000     0.667000000000     0.297700000000     0.0720218  
H        H      0.839200000000     0.711100000000     0.326100000000     0.0720218  
H        H      0.635400000000     0.754400000000     0.305800000000     0.0720218  
H        H      0.625100000000     0.875700000000     0.294200000000     0.0720218  
H        H      0.841900000000     0.847400000000     0.331000000000     0.0720218  
H        H      0.906500000000     0.924500000000     0.190800000000     0.0720218  
H        H      0.702500000000     0.989100000000     0.149200000000     0.0720218  
H        H      0.775100000000     0.938400000000     0.034700000000     0.0720218  
H        H      0.964800000000     0.865400000000     0.064000000000     0.0720218  
H        H      0.905700000000     0.847300000000     0.998700000000     0.0720218  
H        H      0.985400000000     0.021100000000     0.121800000000     0.0720218  
H        H      0.954900000000     0.889200000000     0.911500000000     0.0720218  
H        H      0.591400000000     0.526200000000     0.768800000000     0.0720218  
H        H      0.793200000000     0.462700000000     0.815000000000     0.0720218  
H        H      0.723600000000     0.522200000000     0.930200000000     0.0720218  
H        H      0.597900000000     0.625000000000     0.955000000000     0.0720218  
H        H      0.535200000000     0.594300000000     0.892800000000     0.0720218  
H        H      0.561800000000     0.432300000000     0.891200000000     0.0720218  
H        H      0.498900000000     0.629100000000     0.043900000000     0.0720218  
C        C      0.909600000000     0.391100000000     0.071900000000    -0.0179507  
C        C      0.848120000000     0.330500000000     0.043180000000    -0.0179507  
C        C      0.646400000000     0.356800000000     0.114700000000    -0.0179507  
C        C      0.709120000000     0.313610000000     0.063340000000    -0.0179507  
C        C      0.747410000000     0.395700000000     0.999710000000    -0.0179507  
C        C      0.746690000000     0.342310000000     0.920320000000    -0.0179507  
C        C      0.679580000000     0.302800000000     0.886640000000    -0.0179507  
C        C      0.678940000000     0.256890000000     0.812650000000    -0.0179507  
C        C      0.743820000000     0.248370000000     0.769320000000    -0.0179507  
C        C      0.811010000000     0.287600000000     0.802770000000    -0.0179507  
C        C      0.812220000000     0.333310000000     0.876220000000    -0.0179507  
C        C      0.742810000000     0.199140000000     0.689620000000    -0.0179507  
C        C      0.675450000000     0.188940000000     0.647940000000    -0.0179507  
C        C      0.674300000000     0.142360000000     0.574250000000    -0.0179507  
C        C      0.739830000000     0.104620000000     0.539170000000    -0.0179507  
C        C      0.808000000000     0.114270000000     0.580400000000    -0.0179507  
C        C      0.809290000000     0.161190000000     0.653860000000    -0.0179507  
C        C      0.738960000000     0.050190000000     0.459420000000    -0.0179507  
C        C      0.838290000000     0.116620000000     0.416380000000    -0.0179507  
C        C      0.901140000000     0.056800000000     0.390420000000    -0.0179507  
C        C      0.698830000000     0.132210000000     0.395480000000    -0.0179507  
C        C      0.638150000000     0.088280000000     0.339710000000    -0.0179507  
C        C      0.674000000000     0.581400000000     0.141200000000    -0.0179507  
C        C      0.679500000000     0.649200000000     0.134900000000    -0.0179507  
C        C      0.794920000000     0.606750000000     0.140520000000    -0.0179507  
C        C      0.789900000000     0.731260000000     0.126570000000    -0.0179507  
C        C      0.771900000000     0.729220000000     0.050330000000    -0.0179507  
C        C      0.708100000000     0.765200000000     0.038000000000    -0.0179507  
C        C      0.689600000000     0.760100000000     0.967800000000    -0.0179507  
C        C      0.734600000000     0.718610000000     0.909330000000    -0.0179507  
C        C      0.798900000000     0.682720000000     0.920910000000    -0.0179507  
C        C      0.818600000000     0.688300000000     0.991700000000    -0.0179507  
C        C      0.716700000000     0.713100000000     0.833190000000    -0.0179507  
C        C      0.824100000000     0.787500000000     0.809000000000    -0.0179507  
C        C      0.829200000000     0.854800000000     0.803070000000    -0.0179507  
C        C      0.711200000000     0.839530000000     0.822720000000    -0.0179507  
C        C      0.635800000000     0.934250000000     0.666470000000    -0.0179507  
C        C      0.747300000000     0.969800000000     0.643700000000    -0.0179507  
C        C      0.707500000000     0.941600000000     0.580500000000    -0.0179507  
C        C      0.574000000000     0.887100000000     0.542400000000    -0.0179507  
C        C      0.536300000000     0.946600000000     0.520970000000    -0.0179507  
C        C      0.509000000000     0.012200000000     0.572200000000    -0.0179507  
C        C      0.527200000000     0.933800000000     0.447580000000    -0.0179507  
C        C      0.867000000000     0.517250000000     0.294400000000    -0.0179507  
C        C      0.756660000000     0.482700000000     0.320000000000    -0.0179507  
C        C      0.794600000000     0.515500000000     0.383600000000    -0.0179507  
C        C      0.925000000000     0.579400000000     0.419400000000    -0.0179507  
C        C      0.962920000000     0.536570000000     0.460060000000    -0.0179507  
C        C      0.963100000000     0.460210000000     0.435230000000    -0.0179507  
C        C      0.000410000000     0.576820000000     0.525790000000    -0.0179507  
C        C      0.409600000000     0.608900000000     0.428100000000    -0.0179507  
C        C      0.348120000000     0.669500000000     0.456820000000    -0.0179507  
C        C      0.146400000000     0.643200000000     0.385300000000    -0.0179507  
C        C      0.209120000000     0.686390000000     0.436660000000    -0.0179507  
C        C      0.247410000000     0.604300000000     0.500290000000    -0.0179507  
C        C      0.246690000000     0.657690000000     0.579680000000    -0.0179507  
C        C      0.179580000000     0.697200000000     0.613360000000    -0.0179507  
C        C      0.178940000000     0.743110000000     0.687350000000    -0.0179507  
C        C      0.243820000000     0.751630000000     0.730680000000    -0.0179507  
C        C      0.311010000000     0.712400000000     0.697230000000    -0.0179507  
C        C      0.312220000000     0.666690000000     0.623780000000    -0.0179507  
C        C      0.242810000000     0.800860000000     0.810380000000    -0.0179507  
C        C      0.175450000000     0.811060000000     0.852060000000    -0.0179507  
C        C      0.174300000000     0.857640000000     0.925750000000    -0.0179507  
C        C      0.239830000000     0.895380000000     0.960830000000    -0.0179507  
C        C      0.308000000000     0.885730000000     0.919600000000    -0.0179507  
C        C      0.309290000000     0.838810000000     0.846140000000    -0.0179507  
C        C      0.238960000000     0.949810000000     0.040580000000    -0.0179507  
C        C      0.338290000000     0.883380000000     0.083620000000    -0.0179507  
C        C      0.401140000000     0.943200000000     0.109580000000    -0.0179507  
C        C      0.198830000000     0.867790000000     0.104520000000    -0.0179507  
C        C      0.138150000000     0.911720000000     0.160290000000    -0.0179507  
C        C      0.174000000000     0.418600000000     0.358800000000    -0.0179507  
C        C      0.179500000000     0.350800000000     0.365100000000    -0.0179507  
C        C      0.294920000000     0.393250000000     0.359480000000    -0.0179507  
C        C      0.289900000000     0.268740000000     0.373430000000    -0.0179507  
C        C      0.271900000000     0.270780000000     0.449670000000    -0.0179507  
C        C      0.208100000000     0.234800000000     0.462000000000    -0.0179507  
C        C      0.189600000000     0.239900000000     0.532200000000    -0.0179507  
C        C      0.234600000000     0.281390000000     0.590670000000    -0.0179507  
C        C      0.298900000000     0.317280000000     0.579090000000    -0.0179507  
C        C      0.318600000000     0.311700000000     0.508300000000    -0.0179507  
C        C      0.216700000000     0.286900000000     0.666810000000    -0.0179507  
C        C      0.324100000000     0.212500000000     0.691000000000    -0.0179507  
C        C      0.329200000000     0.145200000000     0.696930000000    -0.0179507  
C        C      0.211200000000     0.160470000000     0.677280000000    -0.0179507  
C        C      0.135800000000     0.065750000000     0.833530000000    -0.0179507  
C        C      0.247300000000     0.030200000000     0.856300000000    -0.0179507  
C        C      0.207500000000     0.058400000000     0.919500000000    -0.0179507  
C        C      0.074000000000     0.112900000000     0.957600000000    -0.0179507  
C        C      0.036300000000     0.053400000000     0.979030000000    -0.0179507  
C        C      0.009000000000     0.987800000000     0.927800000000    -0.0179507  
C        C      0.027200000000     0.066200000000     0.052420000000    -0.0179507  
C        C      0.367000000000     0.482750000000     0.205600000000    -0.0179507  
C        C      0.256660000000     0.517300000000     0.180000000000    -0.0179507  
C        C      0.294600000000     0.484500000000     0.116400000000    -0.0179507  
C        C      0.425000000000     0.420600000000     0.080600000000    -0.0179507  
C        C      0.462920000000     0.463430000000     0.039940000000    -0.0179507  
C        C      0.463100000000     0.539790000000     0.064770000000    -0.0179507  
C        C      0.500410000000     0.423180000000     0.974210000000    -0.0179507  
C        C      0.090400000000     0.608900000000     0.928100000000    -0.0179507  
C        C      0.151880000000     0.669500000000     0.956820000000    -0.0179507  
C        C      0.353600000000     0.643200000000     0.885300000000    -0.0179507  
C        C      0.290880000000     0.686390000000     0.936660000000    -0.0179507  
C        C      0.252590000000     0.604300000000     0.000290000000    -0.0179507  
C        C      0.253310000000     0.657690000000     0.079680000000    -0.0179507  
C        C      0.320420000000     0.697200000000     0.113360000000    -0.0179507  
C        C      0.321060000000     0.743110000000     0.187350000000    -0.0179507  
C        C      0.256180000000     0.751630000000     0.230680000000    -0.0179507  
C        C      0.188990000000     0.712400000000     0.197230000000    -0.0179507  
C        C      0.187780000000     0.666690000000     0.123780000000    -0.0179507  
C        C      0.257190000000     0.800860000000     0.310380000000    -0.0179507  
C        C      0.324550000000     0.811060000000     0.352060000000    -0.0179507  
C        C      0.325700000000     0.857640000000     0.425750000000    -0.0179507  
C        C      0.260170000000     0.895380000000     0.460830000000    -0.0179507  
C        C      0.192000000000     0.885730000000     0.419600000000    -0.0179507  
C        C      0.190710000000     0.838810000000     0.346140000000    -0.0179507  
C        C      0.261040000000     0.949810000000     0.540580000000    -0.0179507  
C        C      0.161710000000     0.883380000000     0.583620000000    -0.0179507  
C        C      0.098860000000     0.943200000000     0.609580000000    -0.0179507  
C        C      0.301170000000     0.867790000000     0.604520000000    -0.0179507  
C        C      0.361850000000     0.911720000000     0.660290000000    -0.0179507  
C        C      0.326000000000     0.418600000000     0.858800000000    -0.0179507  
C        C      0.320500000000     0.350800000000     0.865100000000    -0.0179507  
C        C      0.205080000000     0.393250000000     0.859480000000    -0.0179507  
C        C      0.210100000000     0.268740000000     0.873430000000    -0.0179507  
C        C      0.228100000000     0.270780000000     0.949670000000    -0.0179507  
C        C      0.291900000000     0.234800000000     0.962000000000    -0.0179507  
C        C      0.310400000000     0.239900000000     0.032200000000    -0.0179507  
C        C      0.265400000000     0.281390000000     0.090670000000    -0.0179507  
C        C      0.201100000000     0.317280000000     0.079090000000    -0.0179507  
C        C      0.181400000000     0.311700000000     0.008300000000    -0.0179507  
C        C      0.283300000000     0.286900000000     0.166810000000    -0.0179507  
C        C      0.175900000000     0.212500000000     0.191000000000    -0.0179507  
C        C      0.170800000000     0.145200000000     0.196930000000    -0.0179507  
C        C      0.288800000000     0.160470000000     0.177280000000    -0.0179507  
C        C      0.364200000000     0.065750000000     0.333530000000    -0.0179507  
C        C      0.252700000000     0.030200000000     0.356300000000    -0.0179507  
C        C      0.292500000000     0.058400000000     0.419500000000    -0.0179507  
C        C      0.426000000000     0.112900000000     0.457600000000    -0.0179507  
C        C      0.463700000000     0.053400000000     0.479030000000    -0.0179507  
C        C      0.491000000000     0.987800000000     0.427800000000    -0.0179507  
C        C      0.472800000000     0.066200000000     0.552420000000    -0.0179507  
C        C      0.133000000000     0.482750000000     0.705600000000    -0.0179507  
C        C      0.243340000000     0.517300000000     0.680000000000    -0.0179507  
C        C      0.205400000000     0.484500000000     0.616400000000    -0.0179507  
C        C      0.075000000000     0.420600000000     0.580600000000    -0.0179507  
C        C      0.037080000000     0.463430000000     0.539940000000    -0.0179507  
C        C      0.036900000000     0.539790000000     0.564770000000    -0.0179507  
C        C      0.999590000000     0.423180000000     0.474210000000    -0.0179507  
C        C      0.590400000000     0.391100000000     0.571900000000    -0.0179507  
C        C      0.651880000000     0.330500000000     0.543180000000    -0.0179507  
C        C      0.853600000000     0.356800000000     0.614700000000    -0.0179507  
C        C      0.790880000000     0.313610000000     0.563340000000    -0.0179507  
C        C      0.752590000000     0.395700000000     0.499710000000    -0.0179507  
C        C      0.753310000000     0.342310000000     0.420320000000    -0.0179507  
C        C      0.820420000000     0.302800000000     0.386640000000    -0.0179507  
C        C      0.821060000000     0.256890000000     0.312650000000    -0.0179507  
C        C      0.756180000000     0.248370000000     0.269320000000    -0.0179507  
C        C      0.688990000000     0.287600000000     0.302770000000    -0.0179507  
C        C      0.687780000000     0.333310000000     0.376220000000    -0.0179507  
C        C      0.757190000000     0.199140000000     0.189620000000    -0.0179507  
C        C      0.824550000000     0.188940000000     0.147940000000    -0.0179507  
C        C      0.825700000000     0.142360000000     0.074250000000    -0.0179507  
C        C      0.760170000000     0.104620000000     0.039170000000    -0.0179507  
C        C      0.692000000000     0.114270000000     0.080400000000    -0.0179507  
C        C      0.690710000000     0.161190000000     0.153860000000    -0.0179507  
C        C      0.761040000000     0.050190000000     0.959420000000    -0.0179507  
C        C      0.661710000000     0.116620000000     0.916380000000    -0.0179507  
C        C      0.598860000000     0.056800000000     0.890420000000    -0.0179507  
C        C      0.801170000000     0.132210000000     0.895480000000    -0.0179507  
C        C      0.861850000000     0.088280000000     0.839710000000    -0.0179507  
C        C      0.826000000000     0.581400000000     0.641200000000    -0.0179507  
C        C      0.820500000000     0.649200000000     0.634900000000    -0.0179507  
C        C      0.705080000000     0.606750000000     0.640520000000    -0.0179507  
C        C      0.710100000000     0.731260000000     0.626570000000    -0.0179507  
C        C      0.728100000000     0.729220000000     0.550330000000    -0.0179507  
C        C      0.791900000000     0.765200000000     0.538000000000    -0.0179507  
C        C      0.810400000000     0.760100000000     0.467800000000    -0.0179507  
C        C      0.765400000000     0.718610000000     0.409330000000    -0.0179507  
C        C      0.701100000000     0.682720000000     0.420910000000    -0.0179507  
C        C      0.681400000000     0.688300000000     0.491700000000    -0.0179507  
C        C      0.783300000000     0.713100000000     0.333190000000    -0.0179507  
C        C      0.675900000000     0.787500000000     0.309000000000    -0.0179507  
C        C      0.670800000000     0.854800000000     0.303070000000    -0.0179507  
C        C      0.788800000000     0.839530000000     0.322720000000    -0.0179507  
C        C      0.864200000000     0.934250000000     0.166470000000    -0.0179507  
C        C      0.752700000000     0.969800000000     0.143700000000    -0.0179507  
C        C      0.792500000000     0.941600000000     0.080500000000    -0.0179507  
C        C      0.926000000000     0.887100000000     0.042400000000    -0.0179507  
C        C      0.963700000000     0.946600000000     0.020970000000    -0.0179507  
C        C      0.991000000000     0.012200000000     0.072200000000    -0.0179507  
C        C      0.972800000000     0.933800000000     0.947580000000    -0.0179507  
C        C      0.633000000000     0.517250000000     0.794400000000    -0.0179507  
C        C      0.743340000000     0.482700000000     0.820000000000    -0.0179507  
C        C      0.705400000000     0.515500000000     0.883600000000    -0.0179507  
C        C      0.575000000000     0.579400000000     0.919400000000    -0.0179507  
C        C      0.537080000000     0.536570000000     0.960060000000    -0.0179507  
C        C      0.536900000000     0.460210000000     0.935230000000    -0.0179507  
C        C      0.499590000000     0.576820000000     0.025790000000    -0.0179507  
N        N      0.769940000000     0.363790000000     0.055620000000    -0.113124   
N        N      0.762080000000     0.083930000000     0.402000000000    -0.113124   
N        N      0.747000000000     0.555720000000     0.144690000000    -0.113124   
N        N      0.756940000000     0.664930000000     0.135260000000    -0.113124   
N        N      0.748520000000     0.778010000000     0.820560000000    -0.113124   
N        N      0.758310000000     0.887290000000     0.811880000000    -0.113124   
N        N      0.701490000000     0.965440000000     0.699270000000    -0.113124   
N        N      0.637670000000     0.918760000000     0.595320000000    -0.113124   
N        N      0.801830000000     0.482910000000     0.263590000000    -0.113124   
N        N      0.864760000000     0.537270000000     0.367270000000    -0.113124   
N        N      0.269940000000     0.636210000000     0.444380000000    -0.113124   
N        N      0.262080000000     0.916070000000     0.098000000000    -0.113124   
N        N      0.247000000000     0.444280000000     0.355310000000    -0.113124   
N        N      0.256940000000     0.335070000000     0.364740000000    -0.113124   
N        N      0.248520000000     0.221990000000     0.679440000000    -0.113124   
N        N      0.258310000000     0.112710000000     0.688120000000    -0.113124   
N        N      0.201490000000     0.034560000000     0.800730000000    -0.113124   
N        N      0.137670000000     0.081240000000     0.904680000000    -0.113124   
N        N      0.301830000000     0.517090000000     0.236410000000    -0.113124   
N        N      0.364760000000     0.462730000000     0.132730000000    -0.113124   
N        N      0.230060000000     0.636210000000     0.944380000000    -0.113124   
N        N      0.237920000000     0.916070000000     0.598000000000    -0.113124   
N        N      0.253000000000     0.444280000000     0.855310000000    -0.113124   
N        N      0.243060000000     0.335070000000     0.864740000000    -0.113124   
N        N      0.251480000000     0.221990000000     0.179440000000    -0.113124   
N        N      0.241690000000     0.112710000000     0.188120000000    -0.113124   
N        N      0.298510000000     0.034560000000     0.300730000000    -0.113124   
N        N      0.362330000000     0.081240000000     0.404680000000    -0.113124   
N        N      0.198170000000     0.517090000000     0.736410000000    -0.113124   
N        N      0.135240000000     0.462730000000     0.632730000000    -0.113124   
N        N      0.730060000000     0.363790000000     0.555620000000    -0.113124   
N        N      0.737920000000     0.083930000000     0.902000000000    -0.113124   
N        N      0.753000000000     0.555720000000     0.644690000000    -0.113124   
N        N      0.743060000000     0.664930000000     0.635260000000    -0.113124   
N        N      0.751480000000     0.778010000000     0.320560000000    -0.113124   
N        N      0.741690000000     0.887290000000     0.311880000000    -0.113124   
N        N      0.798510000000     0.965440000000     0.199270000000    -0.113124   
N        N      0.862330000000     0.918760000000     0.095320000000    -0.113124   
N        N      0.698170000000     0.482910000000     0.763590000000    -0.113124   
N        N      0.635240000000     0.537270000000     0.867270000000    -0.113124   
O        O      0.890470000000     0.452560000000     0.121880000000    -0.277085   
O        O      0.976970000000     0.374480000000     0.046480000000    -0.277085   
O        O      0.662420000000     0.421960000000     0.161670000000    -0.277085   
O        O      0.582090000000     0.325300000000     0.110980000000    -0.277085   
O        O      0.967410000000     0.074450000000     0.415870000000    -0.277085   
O        O      0.882910000000     0.993070000000     0.341890000000    -0.277085   
O        O      0.576140000000     0.120620000000     0.338830000000    -0.277085   
O        O      0.655410000000     0.022640000000     0.295740000000    -0.277085   
O        O      0.390470000000     0.547440000000     0.378120000000    -0.277085   
O        O      0.476970000000     0.625520000000     0.453520000000    -0.277085   
O        O      0.162420000000     0.578040000000     0.338330000000    -0.277085   
O        O      0.082090000000     0.674700000000     0.389020000000    -0.277085   
O        O      0.467410000000     0.925550000000     0.084130000000    -0.277085   
O        O      0.382910000000     0.006930000000     0.158110000000    -0.277085   
O        O      0.076140000000     0.879380000000     0.161170000000    -0.277085   
O        O      0.155410000000     0.977360000000     0.204260000000    -0.277085   
O        O      0.109530000000     0.547440000000     0.878120000000    -0.277085   
O        O      0.023030000000     0.625520000000     0.953520000000    -0.277085   
O        O      0.337580000000     0.578040000000     0.838330000000    -0.277085   
O        O      0.417910000000     0.674700000000     0.889020000000    -0.277085   
O        O      0.032590000000     0.925550000000     0.584130000000    -0.277085   
O        O      0.117090000000     0.006930000000     0.658110000000    -0.277085   
O        O      0.423860000000     0.879380000000     0.661170000000    -0.277085   
O        O      0.344590000000     0.977360000000     0.704260000000    -0.277085   
O        O      0.609530000000     0.452560000000     0.621880000000    -0.277085   
O        O      0.523030000000     0.374480000000     0.546480000000    -0.277085   
O        O      0.837580000000     0.421960000000     0.661670000000    -0.277085   
O        O      0.917910000000     0.325300000000     0.610980000000    -0.277085   
O        O      0.532590000000     0.074450000000     0.915870000000    -0.277085   
O        O      0.617090000000     0.993070000000     0.841890000000    -0.277085   
O        O      0.923860000000     0.120620000000     0.838830000000    -0.277085   
O        O      0.844590000000     0.022640000000     0.795740000000    -0.277085   


