data_OCIZIL_original

_audit_creation_method RASPA-1.0
_audit_creation_date 2022-1-28
_audit_author_name 'Felipe Lopes de Oliveira <felipe.lopes.oliveira@ibm.com>'

_cell_length_a    12.453
_cell_length_b    18.167
_cell_length_c    26.668
_cell_angle_alpha 90
_cell_angle_beta  90
_cell_angle_gamma 90
_cell_volume      6033.2

_symmetry_cell_setting          triclinic
_symmetry_space_group_name_Hall 'P 1'
_symmetry_space_group_name_H-M  'P 1'
_symmetry_Int_Tables_number     1

_symmetry_equiv_pos_as_xyz 'x,y,z'

loop_
_atom_site_label
_atom_site_type_symbol
_atom_site_fract_x
_atom_site_fract_y
_atom_site_fract_z
_atom_site_charge
Zn       Zn     0.419390000000     0.540090000000     0.269600000000     0.422815   
Zn       Zn     0.419390000000     0.459910000000     0.730400000000     0.422815   
Zn       Zn     0.580610000000     0.959910000000     0.769600000000     0.422815   
Zn       Zn     0.580610000000     0.040090000000     0.230400000000     0.422815   
Zn       Zn     0.116580000000     0.256490000000     0.535720000000     0.422815   
Zn       Zn     0.116580000000     0.743510000000     0.464280000000     0.422815   
Zn       Zn     0.883420000000     0.243510000000     0.035720000000     0.422815   
Zn       Zn     0.883420000000     0.756490000000     0.964280000000     0.422815   
H        H      0.939100000000     0.310200000000     0.451200000000     0.0555113  
H        H      0.939100000000     0.689800000000     0.548800000000     0.0555113  
H        H      0.060900000000     0.189800000000     0.951200000000     0.0555113  
H        H      0.060900000000     0.810200000000     0.048800000000     0.0555113  
H        H      0.860500000000     0.225100000000     0.388500000000     0.0555113  
H        H      0.860500000000     0.774900000000     0.611500000000     0.0555113  
H        H      0.139500000000     0.274900000000     0.888500000000     0.0555113  
H        H      0.139500000000     0.725100000000     0.111500000000     0.0555113  
H        H      0.053600000000     0.114000000000     0.480800000000     0.0555113  
H        H      0.053600000000     0.886000000000     0.519200000000     0.0555113  
H        H      0.946400000000     0.386000000000     0.980800000000     0.0555113  
H        H      0.946400000000     0.614000000000     0.019200000000     0.0555113  
H        H      0.862200000000     0.113800000000     0.338700000000     0.0555113  
H        H      0.862200000000     0.886200000000     0.661300000000     0.0555113  
H        H      0.137800000000     0.386200000000     0.838700000000     0.0555113  
H        H      0.137800000000     0.613800000000     0.161300000000     0.0555113  
H        H      0.818900000000     0.000200000000     0.305700000000     0.0555113  
H        H      0.818900000000     0.999800000000     0.694300000000     0.0555113  
H        H      0.181100000000     0.499800000000     0.805700000000     0.0555113  
H        H      0.181100000000     0.500200000000     0.194300000000     0.0555113  
H        H      0.941900000000     0.901400000000     0.425300000000     0.0555113  
H        H      0.941900000000     0.098600000000     0.574700000000     0.0555113  
H        H      0.058100000000     0.598600000000     0.925300000000     0.0555113  
H        H      0.058100000000     0.401400000000     0.074700000000     0.0555113  
H        H      0.990800000000     0.014000000000     0.456600000000     0.0555113  
H        H      0.990800000000     0.986000000000     0.543400000000     0.0555113  
H        H      0.009200000000     0.486000000000     0.956600000000     0.0555113  
H        H      0.009200000000     0.514000000000     0.043400000000     0.0555113  
H        H      0.738200000000     0.899900000000     0.289000000000     0.0555113  
H        H      0.738200000000     0.100100000000     0.711000000000     0.0555113  
H        H      0.261800000000     0.600100000000     0.789000000000     0.0555113  
H        H      0.261800000000     0.399900000000     0.211000000000     0.0555113  
H        H      0.658700000000     0.785400000000     0.272600000000     0.0555113  
H        H      0.658700000000     0.214600000000     0.727400000000     0.0555113  
H        H      0.341300000000     0.714600000000     0.772600000000     0.0555113  
H        H      0.341300000000     0.285400000000     0.227400000000     0.0555113  
H        H      0.846100000000     0.691000000000     0.374000000000     0.0555113  
H        H      0.846100000000     0.309000000000     0.626000000000     0.0555113  
H        H      0.153900000000     0.809000000000     0.874000000000     0.0555113  
H        H      0.153900000000     0.191000000000     0.126000000000     0.0555113  
H        H      0.918200000000     0.803400000000     0.393000000000     0.0555113  
H        H      0.918200000000     0.196600000000     0.607000000000     0.0555113  
H        H      0.081800000000     0.696600000000     0.893000000000     0.0555113  
H        H      0.081800000000     0.303400000000     0.107000000000     0.0555113  
H        H      0.543000000000     0.691100000000     0.286300000000     0.0555113  
H        H      0.543000000000     0.308900000000     0.713700000000     0.0555113  
H        H      0.457000000000     0.808900000000     0.786300000000     0.0555113  
H        H      0.457000000000     0.191100000000     0.213700000000     0.0555113  
H        H      0.642900000000     0.490600000000     0.320500000000     0.0555113  
H        H      0.642900000000     0.509400000000     0.679500000000     0.0555113  
H        H      0.357100000000     0.009400000000     0.820500000000     0.0555113  
H        H      0.357100000000     0.990600000000     0.179500000000     0.0555113  
H        H      0.785700000000     0.577100000000     0.345200000000     0.0555113  
H        H      0.785700000000     0.422900000000     0.654800000000     0.0555113  
H        H      0.214300000000     0.922900000000     0.845200000000     0.0555113  
H        H      0.214300000000     0.077100000000     0.154800000000     0.0555113  
H        H      0.192000000000     0.380600000000     0.330800000000     0.0555113  
H        H      0.192000000000     0.619400000000     0.669200000000     0.0555113  
H        H      0.808000000000     0.119400000000     0.830800000000     0.0555113  
H        H      0.808000000000     0.880600000000     0.169200000000     0.0555113  
H        H      0.096100000000     0.270400000000     0.336000000000     0.0555113  
H        H      0.096100000000     0.729600000000     0.664000000000     0.0555113  
H        H      0.903900000000     0.229600000000     0.836000000000     0.0555113  
H        H      0.903900000000     0.770400000000     0.164000000000     0.0555113  
H        H      0.371000000000     0.154100000000     0.326600000000     0.0555113  
H        H      0.371000000000     0.845900000000     0.673400000000     0.0555113  
H        H      0.629000000000     0.345900000000     0.826600000000     0.0555113  
H        H      0.629000000000     0.654100000000     0.173400000000     0.0555113  
H        H      0.468700000000     0.264400000000     0.327400000000     0.0555113  
H        H      0.468700000000     0.735600000000     0.672600000000     0.0555113  
H        H      0.531300000000     0.235600000000     0.827400000000     0.0555113  
H        H      0.531300000000     0.764400000000     0.172600000000     0.0555113  
H        H      0.129600000000     0.009800000000     0.294800000000     0.0555113  
H        H      0.129600000000     0.990200000000     0.705200000000     0.0555113  
H        H      0.870400000000     0.490200000000     0.794800000000     0.0555113  
H        H      0.870400000000     0.509800000000     0.205200000000     0.0555113  
H        H      0.143600000000     0.901100000000     0.339900000000     0.0555113  
H        H      0.143600000000     0.098900000000     0.660100000000     0.0555113  
H        H      0.856400000000     0.598900000000     0.839900000000     0.0555113  
H        H      0.856400000000     0.401100000000     0.160100000000     0.0555113  
H        H      0.267300000000     0.012200000000     0.457300000000     0.0555113  
H        H      0.267300000000     0.987800000000     0.542700000000     0.0555113  
H        H      0.732700000000     0.487800000000     0.957300000000     0.0555113  
H        H      0.732700000000     0.512200000000     0.042700000000     0.0555113  
H        H      0.258300000000     0.121600000000     0.412900000000     0.0555113  
H        H      0.258300000000     0.878400000000     0.587100000000     0.0555113  
H        H      0.741700000000     0.378400000000     0.912900000000     0.0555113  
H        H      0.741700000000     0.621600000000     0.087100000000     0.0555113  
H        H      0.954900000000     0.120500000000     0.166900000000     0.0555113  
H        H      0.954900000000     0.879500000000     0.833100000000     0.0555113  
H        H      0.045100000000     0.379500000000     0.666900000000     0.0555113  
H        H      0.045100000000     0.620500000000     0.333100000000     0.0555113  
H        H      0.972600000000     0.032600000000     0.230400000000     0.0555113  
H        H      0.972600000000     0.967400000000     0.769600000000     0.0555113  
H        H      0.027400000000     0.467400000000     0.730400000000     0.0555113  
H        H      0.027400000000     0.532600000000     0.269600000000     0.0555113  
H        H      0.079100000000     0.886100000000     0.127100000000     0.0555113  
H        H      0.079100000000     0.113900000000     0.872900000000     0.0555113  
H        H      0.920900000000     0.613900000000     0.627100000000     0.0555113  
H        H      0.920900000000     0.386100000000     0.372900000000     0.0555113  
H        H      0.049900000000     0.973800000000     0.064200000000     0.0555113  
H        H      0.049900000000     0.026200000000     0.935800000000     0.0555113  
H        H      0.950100000000     0.526200000000     0.564200000000     0.0555113  
H        H      0.950100000000     0.473800000000     0.435800000000     0.0555113  
H        H      0.228400000000     0.897700000000     0.193700000000     0.0555113  
H        H      0.228400000000     0.102300000000     0.806300000000     0.0555113  
H        H      0.771600000000     0.602300000000     0.693700000000     0.0555113  
H        H      0.771600000000     0.397700000000     0.306300000000     0.0555113  
H        H      0.347500000000     0.799900000000     0.197300000000     0.0555113  
H        H      0.347500000000     0.200100000000     0.802700000000     0.0555113  
H        H      0.652500000000     0.700100000000     0.697300000000     0.0555113  
H        H      0.652500000000     0.299900000000     0.302700000000     0.0555113  
H        H      0.120800000000     0.673800000000     0.260500000000     0.0555113  
H        H      0.120800000000     0.326200000000     0.739500000000     0.0555113  
H        H      0.879200000000     0.826200000000     0.760500000000     0.0555113  
H        H      0.879200000000     0.173800000000     0.239500000000     0.0555113  
H        H      0.997600000000     0.771200000000     0.256800000000     0.0555113  
H        H      0.997600000000     0.228800000000     0.743200000000     0.0555113  
H        H      0.002400000000     0.728800000000     0.756800000000     0.0555113  
H        H      0.002400000000     0.271200000000     0.243200000000     0.0555113  
H        H      0.642900000000     0.728100000000     0.012700000000     0.0555113  
H        H      0.642900000000     0.271900000000     0.987300000000     0.0555113  
H        H      0.357100000000     0.771900000000     0.512700000000     0.0555113  
H        H      0.357100000000     0.228100000000     0.487300000000     0.0555113  
H        H      0.544300000000     0.826100000000     0.056500000000     0.0555113  
H        H      0.544300000000     0.173900000000     0.943500000000     0.0555113  
H        H      0.455700000000     0.673900000000     0.556500000000     0.0555113  
H        H      0.455700000000     0.326100000000     0.443500000000     0.0555113  
H        H      0.829600000000     0.905800000000     0.014200000000     0.0555113  
H        H      0.829600000000     0.094200000000     0.985800000000     0.0555113  
H        H      0.170400000000     0.594200000000     0.514200000000     0.0555113  
H        H      0.170400000000     0.405800000000     0.485800000000     0.0555113  
H        H      0.805700000000     0.984900000000     0.085800000000     0.0555113  
H        H      0.805700000000     0.015100000000     0.914200000000     0.0555113  
H        H      0.194300000000     0.515100000000     0.585800000000     0.0555113  
H        H      0.194300000000     0.484900000000     0.414200000000     0.0555113  
H        H      0.771700000000     0.105900000000     0.111600000000     0.0555113  
H        H      0.771700000000     0.894100000000     0.888400000000     0.0555113  
H        H      0.228300000000     0.394100000000     0.611600000000     0.0555113  
H        H      0.228300000000     0.605900000000     0.388400000000     0.0555113  
H        H      0.460000000000     0.078200000000     0.074300000000     0.0555113  
H        H      0.460000000000     0.921800000000     0.925700000000     0.0555113  
H        H      0.540000000000     0.421800000000     0.574300000000     0.0555113  
H        H      0.540000000000     0.578200000000     0.425700000000     0.0555113  
H        H      0.493700000000     0.959900000000     0.049800000000     0.0555113  
H        H      0.493700000000     0.040100000000     0.950200000000     0.0555113  
H        H      0.506300000000     0.540100000000     0.549800000000     0.0555113  
H        H      0.506300000000     0.459900000000     0.450200000000     0.0555113  
H        H      0.717400000000     0.195700000000     0.157100000000     0.0555113  
H        H      0.717400000000     0.804300000000     0.842900000000     0.0555113  
H        H      0.282600000000     0.304300000000     0.657100000000     0.0555113  
H        H      0.282600000000     0.695700000000     0.342900000000     0.0555113  
H        H      0.681100000000     0.317400000000     0.181400000000     0.0555113  
H        H      0.681100000000     0.682600000000     0.818600000000     0.0555113  
H        H      0.318900000000     0.182600000000     0.681400000000     0.0555113  
H        H      0.318900000000     0.817400000000     0.318600000000     0.0555113  
H        H      0.422700000000     0.319200000000     0.090600000000     0.0555113  
H        H      0.422700000000     0.680800000000     0.909400000000     0.0555113  
H        H      0.577300000000     0.180800000000     0.590600000000     0.0555113  
H        H      0.577300000000     0.819200000000     0.409400000000     0.0555113  
H        H      0.459900000000     0.198800000000     0.065900000000     0.0555113  
H        H      0.459900000000     0.801200000000     0.934100000000     0.0555113  
H        H      0.540100000000     0.301200000000     0.565900000000     0.0555113  
H        H      0.540100000000     0.698800000000     0.434100000000     0.0555113  
H        H      0.487300000000     0.460300000000     0.090700000000     0.0555113  
H        H      0.487300000000     0.539700000000     0.909300000000     0.0555113  
H        H      0.512700000000     0.039700000000     0.590700000000     0.0555113  
H        H      0.512700000000     0.960300000000     0.409300000000     0.0555113  
H        H      0.443500000000     0.561500000000     0.146200000000     0.0555113  
H        H      0.443500000000     0.438500000000     0.853800000000     0.0555113  
H        H      0.556500000000     0.938500000000     0.646200000000     0.0555113  
H        H      0.556500000000     0.061500000000     0.353800000000     0.0555113  
H        H      0.523600000000     0.392600000000     0.230400000000     0.0555113  
H        H      0.523600000000     0.607400000000     0.769600000000     0.0555113  
H        H      0.476400000000     0.107400000000     0.730400000000     0.0555113  
H        H      0.476400000000     0.892600000000     0.269600000000     0.0555113  
C        C      0.952000000000     0.258800000000     0.449600000000     0.0130455  
C        C      0.952000000000     0.741200000000     0.550400000000     0.0130455  
C        C      0.048000000000     0.241200000000     0.949600000000     0.0130455  
C        C      0.048000000000     0.758800000000     0.050400000000     0.0130455  
C        C      0.908600000000     0.212500000000     0.414700000000     0.0130455  
C        C      0.908600000000     0.787500000000     0.585300000000     0.0130455  
C        C      0.091400000000     0.287500000000     0.914700000000     0.0130455  
C        C      0.091400000000     0.712500000000     0.085300000000     0.0130455  
C        C      0.013800000000     0.152600000000     0.465600000000     0.0130455  
C        C      0.013800000000     0.847400000000     0.534400000000     0.0130455  
C        C      0.986200000000     0.347400000000     0.965600000000     0.0130455  
C        C      0.986200000000     0.652600000000     0.034400000000     0.0130455  
C        C      0.923600000000     0.074900000000     0.401700000000     0.0130455  
C        C      0.923600000000     0.925100000000     0.598300000000     0.0130455  
C        C      0.076400000000     0.425100000000     0.901700000000     0.0130455  
C        C      0.076400000000     0.574900000000     0.098300000000     0.0130455  
C        C      0.877200000000     0.070400000000     0.357300000000     0.0130455  
C        C      0.877200000000     0.929600000000     0.642700000000     0.0130455  
C        C      0.122800000000     0.429600000000     0.857300000000     0.0130455  
C        C      0.122800000000     0.570400000000     0.142700000000     0.0130455  
C        C      0.850500000000     0.002200000000     0.338100000000     0.0130455  
C        C      0.850500000000     0.997800000000     0.661900000000     0.0130455  
C        C      0.149500000000     0.497800000000     0.838100000000     0.0130455  
C        C      0.149500000000     0.502200000000     0.161900000000     0.0130455  
C        C      0.866900000000     0.938100000000     0.362700000000     0.0130455  
C        C      0.866900000000     0.061900000000     0.637300000000     0.0130455  
C        C      0.133100000000     0.561900000000     0.862700000000     0.0130455  
C        C      0.133100000000     0.438100000000     0.137300000000     0.0130455  
C        C      0.922900000000     0.944600000000     0.407300000000     0.0130455  
C        C      0.922900000000     0.055400000000     0.592700000000     0.0130455  
C        C      0.077100000000     0.555400000000     0.907300000000     0.0130455  
C        C      0.077100000000     0.444600000000     0.092700000000     0.0130455  
C        C      0.951300000000     0.011400000000     0.426100000000     0.0130455  
C        C      0.951300000000     0.988600000000     0.573900000000     0.0130455  
C        C      0.048700000000     0.488600000000     0.926100000000     0.0130455  
C        C      0.048700000000     0.511400000000     0.073900000000     0.0130455  
C        C      0.831900000000     0.863900000000     0.346000000000     0.0130455  
C        C      0.831900000000     0.136100000000     0.654000000000     0.0130455  
C        C      0.168100000000     0.636100000000     0.846000000000     0.0130455  
C        C      0.168100000000     0.363900000000     0.154000000000     0.0130455  
C        C      0.758200000000     0.857900000000     0.308100000000     0.0130455  
C        C      0.758200000000     0.142100000000     0.691900000000     0.0130455  
C        C      0.241800000000     0.642100000000     0.808100000000     0.0130455  
C        C      0.241800000000     0.357900000000     0.191900000000     0.0130455  
C        C      0.712400000000     0.788900000000     0.297800000000     0.0130455  
C        C      0.712400000000     0.211100000000     0.702200000000     0.0130455  
C        C      0.287600000000     0.711100000000     0.797800000000     0.0130455  
C        C      0.287600000000     0.288900000000     0.202200000000     0.0130455  
C        C      0.742200000000     0.728000000000     0.322300000000     0.0130455  
C        C      0.742200000000     0.272000000000     0.677700000000     0.0130455  
C        C      0.257800000000     0.772000000000     0.822300000000     0.0130455  
C        C      0.257800000000     0.228000000000     0.177700000000     0.0130455  
C        C      0.820700000000     0.733700000000     0.357200000000     0.0130455  
C        C      0.820700000000     0.266300000000     0.642800000000     0.0130455  
C        C      0.179300000000     0.766300000000     0.857200000000     0.0130455  
C        C      0.179300000000     0.233700000000     0.142800000000     0.0130455  
C        C      0.863400000000     0.800900000000     0.368300000000     0.0130455  
C        C      0.863400000000     0.199100000000     0.631700000000     0.0130455  
C        C      0.136600000000     0.699100000000     0.868300000000     0.0130455  
C        C      0.136600000000     0.300900000000     0.131700000000     0.0130455  
C        C      0.586600000000     0.651200000000     0.297100000000     0.0130455  
C        C      0.586600000000     0.348800000000     0.702900000000     0.0130455  
C        C      0.413400000000     0.848800000000     0.797100000000     0.0130455  
C        C      0.413400000000     0.151200000000     0.202900000000     0.0130455  
C        C      0.640800000000     0.542500000000     0.316700000000     0.0130455  
C        C      0.640800000000     0.457500000000     0.683300000000     0.0130455  
C        C      0.359200000000     0.957500000000     0.816700000000     0.0130455  
C        C      0.359200000000     0.042500000000     0.183300000000     0.0130455  
C        C      0.720000000000     0.589400000000     0.329100000000     0.0130455  
C        C      0.720000000000     0.410600000000     0.670900000000     0.0130455  
C        C      0.280000000000     0.910600000000     0.829100000000     0.0130455  
C        C      0.280000000000     0.089400000000     0.170900000000     0.0130455  
C        C      0.403800000000     0.402200000000     0.318000000000     0.0130455  
C        C      0.403800000000     0.597800000000     0.682000000000     0.0130455  
C        C      0.596200000000     0.097800000000     0.818000000000     0.0130455  
C        C      0.596200000000     0.902200000000     0.182000000000     0.0130455  
C        C      0.339800000000     0.332600000000     0.327600000000     0.0130455  
C        C      0.339800000000     0.667400000000     0.672400000000     0.0130455  
C        C      0.660200000000     0.167400000000     0.827600000000     0.0130455  
C        C      0.660200000000     0.832600000000     0.172400000000     0.0130455  
C        C      0.228700000000     0.334800000000     0.330400000000     0.0130455  
C        C      0.228700000000     0.665200000000     0.669600000000     0.0130455  
C        C      0.771300000000     0.165200000000     0.830400000000     0.0130455  
C        C      0.771300000000     0.834800000000     0.169600000000     0.0130455  
C        C      0.171900000000     0.269700000000     0.332400000000     0.0130455  
C        C      0.171900000000     0.730300000000     0.667600000000     0.0130455  
C        C      0.828100000000     0.230300000000     0.832400000000     0.0130455  
C        C      0.828100000000     0.769700000000     0.167600000000     0.0130455  
C        C      0.225900000000     0.203200000000     0.329300000000     0.0130455  
C        C      0.225900000000     0.796800000000     0.670700000000     0.0130455  
C        C      0.774100000000     0.296800000000     0.829300000000     0.0130455  
C        C      0.774100000000     0.703200000000     0.170700000000     0.0130455  
C        C      0.334900000000     0.200100000000     0.327700000000     0.0130455  
C        C      0.334900000000     0.799900000000     0.672300000000     0.0130455  
C        C      0.665100000000     0.299900000000     0.827700000000     0.0130455  
C        C      0.665100000000     0.700100000000     0.172300000000     0.0130455  
C        C      0.392400000000     0.265600000000     0.327500000000     0.0130455  
C        C      0.392400000000     0.734400000000     0.672500000000     0.0130455  
C        C      0.607600000000     0.234400000000     0.827500000000     0.0130455  
C        C      0.607600000000     0.765600000000     0.172500000000     0.0130455  
C        C      0.186700000000     0.076900000000     0.350700000000     0.0130455  
C        C      0.186700000000     0.923100000000     0.649300000000     0.0130455  
C        C      0.813300000000     0.423100000000     0.850700000000     0.0130455  
C        C      0.813300000000     0.576900000000     0.149300000000     0.0130455  
C        C      0.156300000000     0.010400000000     0.328200000000     0.0130455  
C        C      0.156300000000     0.989600000000     0.671800000000     0.0130455  
C        C      0.843700000000     0.489600000000     0.828200000000     0.0130455  
C        C      0.843700000000     0.510400000000     0.171800000000     0.0130455  
C        C      0.165500000000     0.946200000000     0.354800000000     0.0130455  
C        C      0.165500000000     0.053800000000     0.645200000000     0.0130455  
C        C      0.834500000000     0.553800000000     0.854800000000     0.0130455  
C        C      0.834500000000     0.446200000000     0.145200000000     0.0130455  
C        C      0.206600000000     0.946000000000     0.403700000000     0.0130455  
C        C      0.206600000000     0.054000000000     0.596300000000     0.0130455  
C        C      0.793400000000     0.554000000000     0.903700000000     0.0130455  
C        C      0.793400000000     0.446000000000     0.096300000000     0.0130455  
C        C      0.239200000000     0.011900000000     0.424200000000     0.0130455  
C        C      0.239200000000     0.988100000000     0.575800000000     0.0130455  
C        C      0.760800000000     0.488100000000     0.924200000000     0.0130455  
C        C      0.760800000000     0.511900000000     0.075800000000     0.0130455  
C        C      0.232400000000     0.077200000000     0.398500000000     0.0130455  
C        C      0.232400000000     0.922800000000     0.601500000000     0.0130455  
C        C      0.767600000000     0.422800000000     0.898500000000     0.0130455  
C        C      0.767600000000     0.577200000000     0.101500000000     0.0130455  
C        C      0.203100000000     0.877200000000     0.435700000000     0.0130455  
C        C      0.203100000000     0.122800000000     0.564300000000     0.0130455  
C        C      0.796900000000     0.622800000000     0.935700000000     0.0130455  
C        C      0.796900000000     0.377200000000     0.064300000000     0.0130455  
C        C      0.985900000000     0.111800000000     0.068300000000     0.0130455  
C        C      0.985900000000     0.888200000000     0.931700000000     0.0130455  
C        C      0.014100000000     0.388200000000     0.568300000000     0.0130455  
C        C      0.014100000000     0.611800000000     0.431700000000     0.0130455  
C        C      0.002200000000     0.055800000000     0.109700000000     0.0130455  
C        C      0.002200000000     0.944200000000     0.890300000000     0.0130455  
C        C      0.997800000000     0.444200000000     0.609700000000     0.0130455  
C        C      0.997800000000     0.555800000000     0.390300000000     0.0130455  
C        C      0.979100000000     0.072400000000     0.158700000000     0.0130455  
C        C      0.979100000000     0.927600000000     0.841300000000     0.0130455  
C        C      0.020900000000     0.427600000000     0.658700000000     0.0130455  
C        C      0.020900000000     0.572400000000     0.341300000000     0.0130455  
C        C      0.990200000000     0.020500000000     0.196700000000     0.0130455  
C        C      0.990200000000     0.979500000000     0.803300000000     0.0130455  
C        C      0.009800000000     0.479500000000     0.696700000000     0.0130455  
C        C      0.009800000000     0.520500000000     0.303300000000     0.0130455  
C        C      0.027600000000     0.950500000000     0.184500000000     0.0130455  
C        C      0.027600000000     0.049500000000     0.815500000000     0.0130455  
C        C      0.972400000000     0.549500000000     0.684500000000     0.0130455  
C        C      0.972400000000     0.450500000000     0.315500000000     0.0130455  
C        C      0.052000000000     0.933400000000     0.135500000000     0.0130455  
C        C      0.052000000000     0.066600000000     0.864500000000     0.0130455  
C        C      0.948000000000     0.566600000000     0.635500000000     0.0130455  
C        C      0.948000000000     0.433400000000     0.364500000000     0.0130455  
C        C      0.036400000000     0.986300000000     0.098200000000     0.0130455  
C        C      0.036400000000     0.013700000000     0.901800000000     0.0130455  
C        C      0.963600000000     0.513700000000     0.598200000000     0.0130455  
C        C      0.963600000000     0.486300000000     0.401800000000     0.0130455  
C        C      0.103000000000     0.843500000000     0.223200000000     0.0130455  
C        C      0.103000000000     0.156500000000     0.776800000000     0.0130455  
C        C      0.897000000000     0.656500000000     0.723200000000     0.0130455  
C        C      0.897000000000     0.343500000000     0.276800000000     0.0130455  
C        C      0.205500000000     0.851700000000     0.206900000000     0.0130455  
C        C      0.205500000000     0.148300000000     0.793100000000     0.0130455  
C        C      0.794500000000     0.648300000000     0.706900000000     0.0130455  
C        C      0.794500000000     0.351700000000     0.293100000000     0.0130455  
C        C      0.276400000000     0.793800000000     0.209500000000     0.0130455  
C        C      0.276400000000     0.206200000000     0.790500000000     0.0130455  
C        C      0.723600000000     0.706200000000     0.709500000000     0.0130455  
C        C      0.723600000000     0.293800000000     0.290500000000     0.0130455  
C        C      0.245500000000     0.725800000000     0.229800000000     0.0130455  
C        C      0.245500000000     0.274200000000     0.770200000000     0.0130455  
C        C      0.754500000000     0.774200000000     0.729800000000     0.0130455  
C        C      0.754500000000     0.225800000000     0.270200000000     0.0130455  
C        C      0.143000000000     0.719500000000     0.246600000000     0.0130455  
C        C      0.143000000000     0.280500000000     0.753400000000     0.0130455  
C        C      0.857000000000     0.780500000000     0.746600000000     0.0130455  
C        C      0.857000000000     0.219500000000     0.253400000000     0.0130455  
C        C      0.068700000000     0.777000000000     0.244400000000     0.0130455  
C        C      0.068700000000     0.223000000000     0.755600000000     0.0130455  
C        C      0.931300000000     0.723000000000     0.744400000000     0.0130455  
C        C      0.931300000000     0.277000000000     0.255600000000     0.0130455  
C        C      0.325500000000     0.663500000000     0.234000000000     0.0130455  
C        C      0.325500000000     0.336500000000     0.766000000000     0.0130455  
C        C      0.674500000000     0.836500000000     0.734000000000     0.0130455  
C        C      0.674500000000     0.163500000000     0.266000000000     0.0130455  
C        C      0.667500000000     0.776900000000     0.018400000000     0.0130455  
C        C      0.667500000000     0.223100000000     0.981600000000     0.0130455  
C        C      0.332500000000     0.723100000000     0.518400000000     0.0130455  
C        C      0.332500000000     0.276900000000     0.481600000000     0.0130455  
C        C      0.614300000000     0.830100000000     0.042600000000     0.0130455  
C        C      0.614300000000     0.169900000000     0.957400000000     0.0130455  
C        C      0.385700000000     0.669900000000     0.542600000000     0.0130455  
C        C      0.385700000000     0.330100000000     0.457400000000     0.0130455  
C        C      0.770400000000     0.873600000000     0.019100000000     0.0130455  
C        C      0.770400000000     0.126400000000     0.980900000000     0.0130455  
C        C      0.229600000000     0.626400000000     0.519100000000     0.0130455  
C        C      0.229600000000     0.373600000000     0.480900000000     0.0130455  
C        C      0.655200000000     0.962600000000     0.063600000000     0.0130455  
C        C      0.655200000000     0.037400000000     0.936400000000     0.0130455  
C        C      0.344800000000     0.537400000000     0.563600000000     0.0130455  
C        C      0.344800000000     0.462600000000     0.436400000000     0.0130455  
C        C      0.735300000000     0.004700000000     0.082900000000     0.0130455  
C        C      0.735300000000     0.995300000000     0.917100000000     0.0130455  
C        C      0.264700000000     0.495300000000     0.582900000000     0.0130455  
C        C      0.264700000000     0.504700000000     0.417100000000     0.0130455  
C        C      0.714900000000     0.076700000000     0.098500000000     0.0130455  
C        C      0.714900000000     0.923300000000     0.901500000000     0.0130455  
C        C      0.285100000000     0.423300000000     0.598500000000     0.0130455  
C        C      0.285100000000     0.576700000000     0.401500000000     0.0130455  
C        C      0.612100000000     0.106100000000     0.095100000000     0.0130455  
C        C      0.612100000000     0.893900000000     0.904900000000     0.0130455  
C        C      0.387900000000     0.393900000000     0.595100000000     0.0130455  
C        C      0.387900000000     0.606100000000     0.404900000000     0.0130455  
C        C      0.531200000000     0.059800000000     0.076500000000     0.0130455  
C        C      0.531200000000     0.940200000000     0.923500000000     0.0130455  
C        C      0.468800000000     0.440200000000     0.576500000000     0.0130455  
C        C      0.468800000000     0.559800000000     0.423500000000     0.0130455  
C        C      0.550700000000     0.990100000000     0.061600000000     0.0130455  
C        C      0.550700000000     0.009900000000     0.938400000000     0.0130455  
C        C      0.449300000000     0.509900000000     0.561600000000     0.0130455  
C        C      0.449300000000     0.490100000000     0.438400000000     0.0130455  
C        C      0.590800000000     0.183300000000     0.110100000000     0.0130455  
C        C      0.590800000000     0.816700000000     0.889900000000     0.0130455  
C        C      0.409200000000     0.316700000000     0.610100000000     0.0130455  
C        C      0.409200000000     0.683300000000     0.389900000000     0.0130455  
C        C      0.656500000000     0.220200000000     0.143700000000     0.0130455  
C        C      0.656500000000     0.779800000000     0.856300000000     0.0130455  
C        C      0.343500000000     0.279800000000     0.643700000000     0.0130455  
C        C      0.343500000000     0.720200000000     0.356300000000     0.0130455  
C        C      0.635200000000     0.292800000000     0.158400000000     0.0130455  
C        C      0.635200000000     0.707200000000     0.841600000000     0.0130455  
C        C      0.364800000000     0.207200000000     0.658400000000     0.0130455  
C        C      0.364800000000     0.792800000000     0.341600000000     0.0130455  
C        C      0.545500000000     0.328200000000     0.138600000000     0.0130455  
C        C      0.545500000000     0.671800000000     0.861400000000     0.0130455  
C        C      0.454500000000     0.171800000000     0.638600000000     0.0130455  
C        C      0.454500000000     0.828200000000     0.361400000000     0.0130455  
C        C      0.482400000000     0.294000000000     0.104600000000     0.0130455  
C        C      0.482400000000     0.706000000000     0.895400000000     0.0130455  
C        C      0.517600000000     0.206000000000     0.604600000000     0.0130455  
C        C      0.517600000000     0.794000000000     0.395400000000     0.0130455  
C        C      0.504600000000     0.222000000000     0.090100000000     0.0130455  
C        C      0.504600000000     0.778000000000     0.909900000000     0.0130455  
C        C      0.495400000000     0.278000000000     0.590100000000     0.0130455  
C        C      0.495400000000     0.722000000000     0.409900000000     0.0130455  
C        C      0.489100000000     0.459000000000     0.126300000000     0.0130455  
C        C      0.489100000000     0.541000000000     0.873700000000     0.0130455  
C        C      0.510900000000     0.041000000000     0.626300000000     0.0130455  
C        C      0.510900000000     0.959000000000     0.373700000000     0.0130455  
C        C      0.463500000000     0.513400000000     0.156600000000     0.0130455  
C        C      0.463500000000     0.486600000000     0.843400000000     0.0130455  
C        C      0.536500000000     0.986600000000     0.656600000000     0.0130455  
C        C      0.536500000000     0.013400000000     0.343400000000     0.0130455  
C        C      0.507000000000     0.422500000000     0.202300000000     0.0130455  
C        C      0.507000000000     0.577500000000     0.797700000000     0.0130455  
C        C      0.493000000000     0.077500000000     0.702300000000     0.0130455  
C        C      0.493000000000     0.922500000000     0.297700000000     0.0130455  
N        N      0.014900000000     0.221700000000     0.480900000000    -0.152252   
N        N      0.014900000000     0.778300000000     0.519100000000    -0.152252   
N        N      0.985100000000     0.278300000000     0.980900000000    -0.152252   
N        N      0.985100000000     0.721700000000     0.019100000000    -0.152252   
N        N      0.948800000000     0.144200000000     0.425500000000    -0.152252   
N        N      0.948800000000     0.855800000000     0.574500000000    -0.152252   
N        N      0.051200000000     0.355800000000     0.925500000000    -0.152252   
N        N      0.051200000000     0.644200000000     0.074500000000    -0.152252   
N        N      0.687800000000     0.658700000000     0.314100000000    -0.152252   
N        N      0.687800000000     0.341300000000     0.685900000000    -0.152252   
N        N      0.312200000000     0.841300000000     0.814100000000    -0.152252   
N        N      0.312200000000     0.158700000000     0.185900000000    -0.152252   
N        N      0.555700000000     0.582500000000     0.297400000000    -0.152252   
N        N      0.555700000000     0.417500000000     0.702600000000    -0.152252   
N        N      0.444300000000     0.917500000000     0.797400000000    -0.152252   
N        N      0.444300000000     0.082500000000     0.202600000000    -0.152252   
N        N      0.765000000000     0.805900000000     0.003060000000    -0.152252   
N        N      0.765000000000     0.194100000000     0.996940000000    -0.152252   
N        N      0.235000000000     0.694100000000     0.503060000000    -0.152252   
N        N      0.235000000000     0.305900000000     0.496940000000    -0.152252   
N        N      0.678500000000     0.891100000000     0.043910000000    -0.152252   
N        N      0.678500000000     0.108900000000     0.956090000000    -0.152252   
N        N      0.321500000000     0.608900000000     0.543910000000    -0.152252   
N        N      0.321500000000     0.391100000000     0.456090000000    -0.152252   
N        N      0.518300000000     0.401200000000     0.154880000000    -0.152252   
N        N      0.518300000000     0.598800000000     0.845120000000    -0.152252   
N        N      0.481700000000     0.098800000000     0.654880000000    -0.152252   
N        N      0.481700000000     0.901200000000     0.345120000000    -0.152252   
N        N      0.470100000000     0.490100000000     0.205400000000    -0.152252   
N        N      0.470100000000     0.509900000000     0.794600000000    -0.152252   
N        N      0.529900000000     0.009900000000     0.705400000000    -0.152252   
N        N      0.529900000000     0.990100000000     0.294600000000    -0.152252   
O        O      0.350400000000     0.458200000000     0.303980000000    -0.290503   
O        O      0.350400000000     0.541800000000     0.696020000000    -0.290503   
O        O      0.649600000000     0.041800000000     0.803980000000    -0.290503   
O        O      0.649600000000     0.958200000000     0.196020000000    -0.290503   
O        O      0.505100000000     0.399500000000     0.322000000000    -0.290503   
O        O      0.505100000000     0.600500000000     0.678000000000    -0.290503   
O        O      0.494900000000     0.100500000000     0.822000000000    -0.290503   
O        O      0.494900000000     0.899500000000     0.178000000000    -0.290503   
O        O      0.160600000000     0.140900000000     0.324900000000    -0.290503   
O        O      0.160600000000     0.859100000000     0.675100000000    -0.290503   
O        O      0.839400000000     0.359100000000     0.824900000000    -0.290503   
O        O      0.839400000000     0.640900000000     0.175100000000    -0.290503   
O        O      0.142200000000     0.825400000000     0.419430000000    -0.290503   
O        O      0.142200000000     0.174600000000     0.580570000000    -0.290503   
O        O      0.857800000000     0.674600000000     0.919430000000    -0.290503   
O        O      0.857800000000     0.325400000000     0.080570000000    -0.290503   
O        O      0.245100000000     0.877300000000     0.476190000000    -0.290503   
O        O      0.245100000000     0.122700000000     0.523810000000    -0.290503   
O        O      0.754900000000     0.622700000000     0.976190000000    -0.290503   
O        O      0.754900000000     0.377300000000     0.023810000000    -0.290503   
O        O      0.945500000000     0.173200000000     0.083070000000    -0.290503   
O        O      0.945500000000     0.826800000000     0.916930000000    -0.290503   
O        O      0.054500000000     0.326800000000     0.583070000000    -0.290503   
O        O      0.054500000000     0.673200000000     0.416930000000    -0.290503   
O        O      0.007300000000     0.097200000000     0.024630000000    -0.290503   
O        O      0.007300000000     0.902800000000     0.975370000000    -0.290503   
O        O      0.992700000000     0.402800000000     0.524630000000    -0.290503   
O        O      0.992700000000     0.597200000000     0.475370000000    -0.290503   
O        O      0.029400000000     0.901100000000     0.223650000000    -0.290503   
O        O      0.029400000000     0.098900000000     0.776350000000    -0.290503   
O        O      0.970600000000     0.598900000000     0.723650000000    -0.290503   
O        O      0.970600000000     0.401100000000     0.276350000000    -0.290503   
O        O      0.297600000000     0.607700000000     0.260110000000    -0.290503   
O        O      0.297600000000     0.392300000000     0.739890000000    -0.290503   
O        O      0.702400000000     0.892300000000     0.760110000000    -0.290503   
O        O      0.702400000000     0.107700000000     0.239890000000    -0.290503   
O        O      0.412000000000     0.669500000000     0.213000000000    -0.290503   
O        O      0.412000000000     0.330500000000     0.787000000000    -0.290503   
O        O      0.588000000000     0.830500000000     0.713000000000    -0.290503   
O        O      0.588000000000     0.169500000000     0.287000000000    -0.290503   


